CM EZNEC Model Converted to NEC2
CE
GW 1 18 -2.250 -0.900 0.000 2.250 -0.900 0.000 0.050000
GW 2 18 -2.250 0.900 0.000 2.250 0.900 0.000 0.050000
GW 3 8 -2.250 -0.900 0.000 -2.250 0.900 0.000 0.050000
GW 4 8 2.250 -0.900 0.000 2.250 0.900 0.000 0.050000
GW 5 4 -2.250 -0.600 0.000 -1.500 -0.600 0.000 0.050000
GW 6 4 -2.250 0.600 0.000 -1.500 0.600 0.000 0.050000
GW 7 5 -2.250 -0.600 0.000 -2.250 0.600 0.000 0.050000
GW 8 10 -0.500 -0.800 1.800 1.500 -0.800 1.800 0.030000
GW 9 10 -0.500 0.800 1.800 1.500 0.800 1.800 0.030000
GW 10 8 -0.500 -0.800 1.800 -0.500 0.800 1.800 0.030000
GW 11 8 1.500 -0.800 1.800 1.500 0.800 1.800 0.030000
GW 12 20 1.800 0.700 1.900 1.800 0.700 5.000 0.008000
GW 13 1 1.800 0.700 1.800 1.800 0.700 1.900 0.010000
GE 0
EX 0 12 10 0 1.0 0.0
GN 2 0 0 0 0.005 0.013  
LD 5 1 11 0 1E+07 0     
LD 5 14 14 0 1E-10 0    
FR 0 1 0 0 50.0 0       
RP 0 37 73 1000 0 0 5 10 0 0
EN
