CM Simple 80m Loop Antenna - Working Model
CE
GW      1       20      10      10      0       -10      10      0       0.001
GW      2       20      -10     10      0       -10      -10     0       0.001
GW      3       20      -10     -10     0       10       -10     0       0.001
GW      4       20      10      -10     0       10       10      0       0.001
GE      1
GN      2       0       0       0       13      0.005
GD      0       0       0       0       0       0       0       0
EK
EX      0       1       10      0       1       0       0       0
FR      0       0       0       0       3.5     0
RP      0       19      73      1000    0       0       5       10      0       0
EN



