CM EZNEC Model Converted to NEC2
CE
GW 1 20 -4.770 -1.620 0.000 4.770 -1.620 0.000 0.800000
GW 2 20 -4.770 1.620 0.000 4.770 1.620 0.000 0.800000
GW 3 7 -4.770 -1.620 0.000 -4.770 1.620 0.000 0.600000
GW 4 7 4.770 -1.620 0.000 4.770 1.620 0.000 0.600000
GW 5 20 -4.770 -1.620 2.000 4.770 -1.620 2.000 0.600000
GW 6 20 -4.770 1.620 2.000 4.770 1.620 2.000 0.600000
GW 7 7 -4.770 -1.620 2.000 -4.770 1.620 2.000 0.500000
GW 8 7 4.770 -1.620 2.000 4.770 1.620 2.000 0.500000
GW 9 7 -3.000 -1.620 0.000 -3.000 1.620 0.000 0.400000
GW 10 7 -1.000 -1.620 0.000 -1.000 1.620 0.000 0.400000
GW 11 7 1.000 -1.620 0.000 1.000 1.620 0.000 0.400000
GW 12 7 3.000 -1.620 0.000 3.000 1.620 0.000 0.400000
GW 13 6 1.000 -1.570 2.000 1.000 1.570 2.000 0.500000
GW 14 8 0.000 -1.570 2.400 2.000 0.000 2.400 0.500000
GW 15 8 2.000 0.000 2.400 0.000 1.570 2.400 0.500000
GW 16 8 0.000 1.570 2.400 -2.000 0.000 2.400 0.500000
GW 17 8 -2.000 0.000 2.400 0.000 -1.570 2.400 0.500000
GW 18 3 0.500 -0.800 2.800 0.500 0.800 2.800 0.300000
GW 19 3 -0.500 -0.800 2.800 -0.500 0.800 2.800 0.300000
GW 20 3 0.500 -0.800 2.800 -0.500 -0.800 2.800 0.300000
GW 21 3 0.500 0.800 2.800 -0.500 0.800 2.800 0.300000
GW 22 15 1.500 0.000 2.500 9.000 0.000 2.500 0.150000
GW 23 20 1.200 1.000 2.800 1.200 1.000 6.800 0.008000
GW 30 3 -3.500 -2.000 -0.500 -3.500 -1.800 0.000 0.100000
GW 31 3 -1.500 -2.000 -0.500 -1.500 -1.800 0.000 0.100000
GW 32 3 0.500 -2.000 -0.500 0.500 -1.800 0.000 0.100000
GW 33 3 2.500 -2.000 -0.500 2.500 -1.800 0.000 0.100000
GW 34 3 4.000 -2.000 -0.500 4.000 -1.800 0.000 0.100000
GW 35 3 -3.500 2.000 -0.500 -3.500 1.800 0.000 0.100000
GW 36 3 -1.500 2.000 -0.500 -1.500 1.800 0.000 0.100000
GW 37 3 0.500 2.000 -0.500 0.500 1.800 0.000 0.100000
GW 38 3 2.500 2.000 -0.500 2.500 1.800 0.000 0.100000
GW 39 3 4.000 2.000 -0.500 4.000 1.800 0.000 0.100000
GW 40 18 -4.500 -2.000 -0.300 4.500 -2.000 -0.300 0.050000
GW 41 18 -4.500 2.000 -0.300 4.500 2.000 -0.300 0.050000
GW 42 4 2.500 -1.500 1.000 4.500 -1.500 1.000 0.300000
GW 43 4 2.500 1.500 1.000 4.500 1.500 1.000 0.300000
GW 44 3 2.500 -1.500 1.000 2.500 1.500 1.000 0.300000
GW 45 3 4.500 -1.500 1.000 4.500 1.500 1.000 0.300000
GE 0
EX 0 23 10 0 1.0 0.0
GN 2 0 0 0 0.003 0.015  
LD 5 1 21 0 1E+07 0     
LD 5 22 22 0 1E+07 0    
LD 5 30 41 0 5E+06 0    
FR 0 1 0 0 41.500 0     
RP 0 37 73 1000 0 0 5 10 0 0
EN
