CM EZNEC Model Converted to NEC2
CE
GW 1 11 -6.000 0.000 0.000 6.000 0.000 0.000 0.100000
GW 2 11 -6.000 -1.500 0.000 6.000 -1.500 0.000 0.100000
GW 3 11 -6.000 1.500 0.000 6.000 1.500 0.000 0.100000
GW 4 5 -6.000 -1.500 0.000 -6.000 1.500 0.000 0.100000
GW 5 5 6.000 -1.500 0.000 6.000 1.500 0.000 0.100000
GW 6 5 -3.000 -1.500 0.000 -3.000 1.500 0.000 0.100000
GW 7 5 0.000 -1.500 0.000 0.000 1.500 0.000 0.100000
GW 8 5 3.000 -1.500 0.000 3.000 1.500 0.000 0.100000
GW 9 35 5.500 0.000 3.000 5.500 0.000 10.000 0.008000
GE 0
EX 0 9 1 0 1.0 0.0
GN 2 0 0 0 5.0 0.003  
LD 5 0 0 0 1E+07 0  ; Perfect conductor for hull wires
FR 0 1 0 0 14.200 0  
RP 0 37 73 1000 0 0 5 10 0 0  ; Elevation and azimuth pattern
EN
