CM EZNEC Model Converted to NEC2
CE
GW 1 34 -8.400 0.000 0.000 8.400 0.000 0.000 1.650000
GW 2 34 -8.400 1.200 0.000 8.400 1.200 0.000 1.400000
GW 3 34 -8.400 -1.200 0.000 8.400 -1.200 0.000 1.400000
GW 4 34 -8.400 0.000 1.200 8.400 0.000 1.200 1.400000
GW 5 34 -8.400 0.000 -1.200 8.400 0.000 -1.200 1.400000
GW 6 6 -6.000 -1.600 0.000 -6.000 1.600 0.000 0.050000
GW 7 6 -3.000 -1.600 0.000 -3.000 1.600 0.000 0.050000
GW 8 6 0.000 -1.600 0.000 0.000 1.600 0.000 0.050000
GW 9 6 3.000 -1.600 0.000 3.000 1.600 0.000 0.050000
GW 10 6 6.000 -1.600 0.000 6.000 1.600 0.000 0.050000
GW 11 6 2.000 -1.600 -1.200 2.000 1.600 -1.200 0.050000
GW 12 6 0.000 0.000 3.000 0.000 0.000 4.200 0.300000
GW 13 4 0.000 -2.000 4.200 0.000 -4.000 4.200 0.150000
GW 14 4 0.000 -6.000 4.200 0.000 -8.000 4.200 0.150000
GW 15 4 0.000 2.000 4.200 0.000 4.000 4.200 0.150000
GW 16 4 0.000 6.000 4.200 0.000 8.000 4.200 0.150000
GW 17 4 -2.000 0.000 4.200 -4.000 0.000 4.200 0.150000
GW 18 4 -6.000 0.000 4.200 -8.000 0.000 4.200 0.150000
GW 19 4 2.000 0.000 4.200 4.000 0.000 4.200 0.150000
GW 20 4 6.000 0.000 4.200 8.000 0.000 4.200 0.150000
GW 21 8 -2.000 -1.500 1.800 2.000 -1.500 1.800 0.200000
GW 22 8 -2.000 1.500 1.800 2.000 1.500 1.800 0.200000
GW 23 20 6.000 0.000 1.000 16.000 0.000 2.500 0.400000
GW 24 5 16.000 0.000 2.500 16.000 0.000 5.000 0.200000
GW 25 5 16.000 -1.250 3.750 16.000 1.250 3.750 0.080000
GW 26 7 -2.000 -2.500 -1.500 -2.000 -2.500 0.000 0.050000
GW 27 7 -2.000 2.500 -1.500 -2.000 2.500 0.000 0.050000
GW 28 7 4.000 -2.500 -1.500 4.000 -2.500 0.000 0.050000
GW 29 7 4.000 2.500 -1.500 4.000 2.500 0.000 0.050000
GW 30 17 2.000 0.000 -1.200 2.000 0.000 -4.500 0.006000
GW 31 10 4.000 1.800 0.500 4.000 1.800 1.800 0.005000
GE 0
EX 0 31 5 0 1.0 0.0
GN 2 0 0 0 0.005 0.013
LD 5 1 12 0 2.5E+07 0    
LD 5 21 29 0 2.5E+07 0   
LD 4 13 20 0 100.0 0     
LD 5 30 30 0 3.7E+07 0   
LD 4 31 31 0 50.0 0.0    
FR 0 1 0 0 145.0 0
RP 0 37 73 1000 0 0 5 10 0 0
EN
