CM EZNEC Model Converted to NEC2
CE
GW 1 20 0.000 0.000 0.000 0.000 0.000 10.000 0.006000
GW 2 100 0.000 0.000 10.000 0.000 50.000 10.000 0.006000
GW 3 159 0.000 0.000 0.000 0.000 159.000 0.000 0.003000
GW 4 159 0.000 0.000 0.000 0.000 -159.000 0.000 0.003000
GW 5 159 0.000 0.000 0.000 159.000 0.000 0.000 0.003000
GW 6 159 0.000 0.000 0.000 -159.000 0.000 0.000 0.003000
GE 0
EX 0 1 1 0 1.0 0.0
GD 1 0 0 0 0.005 0.013
LD 5 1 6 0 3.7E+07 0
FR 0 1 0 0 472.0 0
RP 0 37 73 1000 0 0 5 10 0 0
EN
