CM EZNEC Model Converted to NEC2
CE
GW 1 150 0.000 0.000 10.000 75.000 0.000 10.000 0.006000
GW 2 37 0.000 0.000 0.000 37.500 0.000 0.000 0.003000
GW 3 37 0.000 0.000 0.000 -37.500 0.000 0.000 0.003000
GW 4 37 0.000 0.000 0.000 0.000 37.500 0.000 0.003000
GW 5 37 0.000 0.000 0.000 0.000 -37.500 0.000 0.003000
GE 0
EX 0 1 1 0 1.0 0.0
GD 1 0 0 0 0.005 0.013
LD 5 1 5 0 3.7E+07 0
FR 0 1 0 0 2000.0 0
RP 0 37 73 1000 0 0 5 10 0 0
EN
