CM Square Loop Antenna - 80.2 meters total length
CE
GW	1	11	10.6762	10.6762	10	-10.6762	10.6762	10	2.e-3
GW	2	10	-10.6762	10.6762	10	-10.6762	-10.6762	10	2.e-3
GW	3	10	-10.6762	-10.6762	10	10.6762	-10.6762	10	2.e-3
GW	4	10	10.6762	-10.6762	10	10.6762	10.6762	10	2.e-3
GE	1
GN	2	0	0	0	13	0.005
EK
EX	0	1	6	0	1	0	0	0
FR 0 1 0 0 7.000 0
RP	0	1	360	1000	90	0	1	1		
EN
