CM EZNEC Model Converted to NEC2
CE
GW 1 15 -3.660 0.000 0.000 3.660 0.000 0.000 0.020000
GW 2 27 -3.660 -1.350 0.000 -3.660 1.350 0.000 0.003000
GW 3 26 0.000 -1.300 0.000 0.000 1.300 0.000 0.003000
GW 4 25 2.500 -1.250 0.000 2.500 1.250 0.000 0.003000
GE 0
EX 0 3 1 0 1.0 0.0
GN 2 0 0 0 0.005 0.013  
LD 5 1 1 0 3.7E+07 0    
FR 0 1 0 0 14.175 0     
RP 0 37 73 1000 0 0 5 10 0 0
EN
