CM EZNEC Model Converted to NEC2
CE
GW 1 35 -8.800 0.000 0.000 8.800 0.000 0.000 1.250000
GW 2 35 -8.800 1.000 0.000 8.800 1.000 0.000 1.100000
GW 3 35 -8.800 -1.000 0.000 8.800 -1.000 0.000 1.100000
GW 4 35 -8.800 0.000 1.000 8.800 0.000 1.000 1.100000
GW 5 35 -8.800 0.000 -1.000 8.800 0.000 -1.000 1.100000
GW 6 5 -6.000 -1.250 0.000 -6.000 1.250 0.000 0.040000
GW 7 5 -3.000 -1.250 0.000 -3.000 1.250 0.000 0.040000
GW 8 5 0.000 -1.250 0.000 0.000 1.250 0.000 0.040000
GW 9 5 3.000 -1.250 0.000 3.000 1.250 0.000 0.040000
GW 10 5 6.000 -1.250 0.000 6.000 1.250 0.000 0.040000
GW 11 6 0.000 0.000 2.800 0.000 0.000 4.000 0.250000
GW 12 3 0.000 -1.500 4.000 0.000 -3.000 4.000 0.120000
GW 13 3 0.000 -4.000 4.000 0.000 -5.500 4.000 0.120000
GW 14 3 0.000 1.500 4.000 0.000 3.000 4.000 0.120000
GW 15 3 0.000 4.000 4.000 0.000 5.500 4.000 0.120000
GW 16 18 8.800 0.000 0.000 17.600 0.000 0.000 0.300000
GW 17 18 8.800 0.000 0.000 17.600 0.000 0.000 0.250000
GW 18 18 8.800 0.000 0.000 17.600 0.000 0.000 0.200000
GW 19 4 17.600 0.000 0.000 17.600 0.000 1.500 0.150000
GW 20 4 17.600 0.000 0.000 17.600 0.000 -1.500 0.150000
GW 21 8 15.000 0.000 0.000 15.000 0.000 2.500 0.200000
GW 22 8 17.000 0.000 0.000 17.000 0.000 2.500 0.150000
GW 23 2 15.000 0.000 2.500 17.000 0.000 2.500 0.100000
GW 24 8 15.500 -2.000 0.500 15.500 2.000 0.500 0.150000
GW 25 8 16.500 -2.000 0.500 16.500 2.000 0.500 0.120000
GW 26 2 15.500 -2.000 0.500 16.500 -2.000 0.500 0.080000
GW 27 2 15.500 2.000 0.500 16.500 2.000 0.500 0.080000
GW 28 8 -2.000 0.000 -0.800 -2.000 0.000 -1.800 0.006000
GE 0
EX 0 28 4 0 1.0 0.0
GN 2 0 0 0 0.005 0.013  
LD 5 1 27 0 3.7E+07 0    
LD 4 28 28 0 50.0 0.0    
FR 0 1 0 0 125.0 0
RP 0 37 73 1000 0 0 5 10 0 0
EN
