CM EZNEC Model Converted to NEC2
CE
GW 1 10 -0.500 0.000 10.000 0.500 0.000 10.000 0.015000
GW 2 21 -1.550 0.000 10.000 -0.500 0.000 10.000 0.012500
GW 3 21 0.500 0.000 10.000 1.550 0.000 10.000 0.012500
GW 4 14 -1.400 -0.175 10.000 -1.400 0.175 10.000 0.003000
GW 5 13 -1.100 -0.162 10.000 -1.100 0.162 10.000 0.003000
GW 6 13 -0.850 -0.158 10.000 -0.850 0.158 10.000 0.003000
GW 7 12 -0.620 -0.155 10.000 -0.620 0.155 10.000 0.003000
GW 8 12 -0.420 -0.152 10.000 -0.420 0.152 10.000 0.003000
GW 9 12 -0.240 -0.150 10.000 -0.240 0.150 10.000 0.003000
GW 10 12 -0.080 -0.148 10.000 -0.080 0.148 10.000 0.003000
GW 11 12 0.060 -0.146 10.000 0.060 0.146 10.000 0.003000
GW 12 11 0.190 -0.144 10.000 0.190 0.144 10.000 0.003000
GW 13 11 0.310 -0.142 10.000 0.310 0.142 10.000 0.003000
GW 14 11 0.420 -0.140 10.000 0.420 0.140 10.000 0.003000
GW 15 11 0.530 -0.138 10.000 0.530 0.138 10.000 0.003000
GW 16 11 0.630 -0.136 10.000 0.630 0.136 10.000 0.003000
GW 17 11 0.730 -0.134 10.000 0.730 0.134 10.000 0.003000
GW 18 10 0.830 -0.132 10.000 0.830 0.132 10.000 0.003000
GW 19 10 0.930 -0.130 10.000 0.930 0.130 10.000 0.003000
GW 20 2 -1.400 0.000 10.000 -1.400 -0.175 10.000 0.003000
GW 21 2 -1.400 0.000 10.000 -1.400 0.175 10.000 0.003000
GW 22 2 -1.100 0.000 10.000 -1.100 -0.162 10.000 0.003000
GW 23 2 -1.100 0.000 10.000 -1.100 0.162 10.000 0.003000
GW 24 2 -0.850 0.000 10.000 -0.850 -0.158 10.000 0.003000
GW 25 2 -0.850 0.000 10.000 -0.850 0.158 10.000 0.003000
GW 26 2 -0.620 0.000 10.000 -0.620 -0.155 10.000 0.003000
GW 27 2 -0.620 0.000 10.000 -0.620 0.155 10.000 0.003000
GW 28 2 -0.420 0.000 10.000 -0.420 -0.152 10.000 0.003000
GW 29 2 -0.420 0.000 10.000 -0.420 0.152 10.000 0.003000
GW 30 2 -0.240 0.000 10.000 -0.240 -0.150 10.000 0.003000
GW 31 2 -0.240 0.000 10.000 -0.240 0.150 10.000 0.003000
GW 32 2 -0.080 0.000 10.000 -0.080 -0.148 10.000 0.003000
GW 33 2 -0.080 0.000 10.000 -0.080 0.148 10.000 0.003000
GW 34 2 0.060 0.000 10.000 0.060 -0.146 10.000 0.003000
GW 35 2 0.060 0.000 10.000 0.060 0.146 10.000 0.003000
GW 36 2 0.190 0.000 10.000 0.190 -0.144 10.000 0.003000
GW 37 2 0.190 0.000 10.000 0.190 0.144 10.000 0.003000
GW 38 2 0.310 0.000 10.000 0.310 -0.142 10.000 0.003000
GW 39 2 0.310 0.000 10.000 0.310 0.142 10.000 0.003000
GW 40 2 0.420 0.000 10.000 0.420 -0.140 10.000 0.003000
GW 41 2 0.420 0.000 10.000 0.420 0.140 10.000 0.003000
GW 42 2 0.530 0.000 10.000 0.530 -0.138 10.000 0.003000
GW 43 2 0.530 0.000 10.000 0.530 0.138 10.000 0.003000
GW 44 2 0.630 0.000 10.000 0.630 -0.136 10.000 0.003000
GW 45 2 0.630 0.000 10.000 0.630 0.136 10.000 0.003000
GW 46 2 0.730 0.000 10.000 0.730 -0.134 10.000 0.003000
GW 47 2 0.730 0.000 10.000 0.730 0.134 10.000 0.003000
GW 48 2 0.830 0.000 10.000 0.830 -0.132 10.000 0.003000
GW 49 2 0.830 0.000 10.000 0.830 0.132 10.000 0.003000
GW 50 2 0.930 0.000 10.000 0.930 -0.130 10.000 0.003000
GW 51 2 0.930 0.000 10.000 0.930 0.130 10.000 0.003000
GW 52 2 -1.100 0.000 9.800 -1.100 0.000 10.000 0.008000
GE 0
EX 0 52 1 0 1.0 0.0
GD 1 0 0 0 0.005 0.013
LD 5 1 51 0 3.7E+07 0    
LD 4 52 52 0 200.0 0     
FR 0 1 0 0 432.0 0
RP 0 37 73 1000 0 0 5 10 0 0
EN
