CM EZNEC Model Converted to NEC2
CE
GW 1 300 0.000 0.000 0.000 0.000 0.000 150.000 0.010000
GW 2 195 0.000 0.000 150.000 0.000 97.500 150.000 0.010000
GW 3 195 0.000 0.000 150.000 0.000 -97.500 150.000 0.010000
GW 4 200 0.000 0.000 0.000 0.000 200.000 0.000 0.003000
GW 5 200 0.000 0.000 0.000 0.000 -200.000 0.000 0.003000
GW 6 200 0.000 0.000 0.000 0.000 141.400 0.000 0.003000
GW 7 200 0.000 0.000 0.000 0.000 -141.400 0.000 0.003000
GW 8 200 0.000 0.000 0.000 0.000 100.000 0.000 0.003000
GW 9 200 0.000 0.000 0.000 0.000 -100.000 0.000 0.003000
GW 10 200 0.000 0.000 0.000 200.000 0.000 0.000 0.003000
GW 11 200 0.000 0.000 0.000 -200.000 0.000 0.000 0.003000
GW 12 200 0.000 0.000 0.000 141.400 141.400 0.000 0.003000
GW 13 200 0.000 0.000 0.000 -141.400 141.400 0.000 0.003000
GW 14 200 0.000 0.000 0.000 141.400 -141.400 0.000 0.003000
GW 15 200 0.000 0.000 0.000 -141.400 -141.400 0.000 0.003000
GE 0
EX 0 1 1 0 1.0 0.0
GD 1 0 0 0 5.0 81
LD 5 1 15 0 3.7E+07 0
FR 0 1 0 0 0.5000.0 0
RP 0 37 73 1000 0 0 5 10 0 0
EN
