CM EZNEC Model Converted to NEC2
CE
GW 1 28 -3.500 -1.250 0.000 3.500 -1.250 0.000 0.080000
GW 2 28 -3.500 1.250 0.000 3.500 1.250 0.000 0.080000
GW 3 10 -3.500 -1.250 0.000 -3.500 1.250 0.000 0.060000
GW 4 10 3.500 -1.250 0.000 3.500 1.250 0.000 0.060000
GW 5 8 -2.500 -1.250 0.000 -2.500 1.250 0.000 0.050000
GW 6 8 -1.000 -1.250 0.000 -1.000 1.250 0.000 0.050000
GW 7 8 0.500 -1.250 0.000 0.500 1.250 0.000 0.050000
GW 8 8 2.000 -1.250 0.000 2.000 1.250 0.000 0.050000
GW 9 12 -3.500 -1.000 0.000 -2.000 -1.000 0.000 0.060000
GW 10 12 -3.500 1.000 0.000 -2.000 1.000 0.000 0.060000
GW 11 8 -3.500 -1.000 0.000 -3.500 1.000 0.000 0.060000
GW 12 8 -2.000 -1.000 0.000 -2.000 1.000 0.000 0.060000
GW 13 18 -2.000 -1.200 0.000 2.500 -1.200 0.000 0.050000
GW 14 18 -2.000 1.200 0.000 2.500 1.200 0.000 0.050000
GW 15 8 -2.000 -1.200 0.000 -2.000 1.200 0.000 0.050000
GW 16 8 2.500 -1.200 0.000 2.500 1.200 0.000 0.050000
GW 17 15 -2.000 -1.200 0.000 -2.000 -1.200 3.000 0.040000
GW 18 15 -2.000 1.200 0.000 -2.000 1.200 3.000 0.040000
GW 19 15 2.500 -1.200 0.000 2.500 -1.200 3.000 0.040000
GW 20 15 2.500 1.200 0.000 2.500 1.200 3.000 0.040000
GW 21 18 -2.000 -1.200 3.000 2.500 -1.200 3.000 0.040000
GW 22 18 -2.000 1.200 3.000 2.500 1.200 3.000 0.040000
GW 23 8 -2.000 -1.200 3.000 -2.000 1.200 3.000 0.040000
GW 24 8 2.500 -1.200 3.000 2.500 1.200 3.000 0.040000
GW 25 8 -1.000 -1.200 3.000 -1.000 1.200 3.000 0.030000
GW 26 8 0.000 -1.200 3.000 0.000 1.200 3.000 0.030000
GW 27 8 1.000 -1.200 3.000 1.000 1.200 3.000 0.030000
GW 28 10 2.500 -1.100 0.000 3.500 -1.100 0.000 0.050000
GW 29 10 2.500 1.100 0.000 3.500 1.100 0.000 0.050000
GW 30 6 2.500 -1.100 0.000 2.500 1.100 0.000 0.050000
GW 31 6 3.500 -1.100 0.000 3.500 1.100 0.000 0.050000
GW 32 14 2.500 -1.100 0.000 2.500 -1.100 2.800 0.040000
GW 33 14 2.500 1.100 0.000 2.500 1.100 2.800 0.040000
GW 34 14 3.500 -1.100 0.000 3.500 -1.100 2.800 0.040000
GW 35 14 3.500 1.100 0.000 3.500 1.100 2.800 0.040000
GW 36 10 2.500 -1.100 2.800 3.500 -1.100 2.800 0.040000
GW 37 10 2.500 1.100 2.800 3.500 1.100 2.800 0.040000
GW 38 6 2.500 -1.100 2.800 2.500 1.100 2.800 0.040000
GW 39 6 3.500 -1.100 2.800 3.500 1.100 2.800 0.040000
GW 40 8 -1.500 -1.800 0.500 -1.500 -1.800 1.500 0.150000
GW 41 8 1.500 1.800 0.500 1.500 1.800 1.500 0.150000
GW 42 4 -2.500 -1.800 0.000 -2.500 -1.800 0.800 0.200000
GW 43 4 -2.500 1.800 0.000 -2.500 1.800 0.800 0.200000
GW 44 4 2.000 -1.800 0.000 2.000 -1.800 0.800 0.200000
GW 45 4 2.000 1.800 0.000 2.000 1.800 0.800 0.200000
GW 46 8 2.300 0.000 3.000 2.300 0.000 3.300 0.080000
GW 47 25 2.300 0.000 3.300 2.300 0.000 5.800 0.004000
GW 48 1 2.300 0.000 2.900 2.300 0.000 3.000 0.010000
GW 49 1 2.300 0.000 2.900 2.500 0.000 2.900 0.002000
GW 50 1 2.300 0.000 2.900 2.100 0.000 2.900 0.002000
GW 51 1 2.300 0.000 2.900 2.300 0.200 2.900 0.002000
GW 52 1 2.300 0.000 2.900 2.300 -0.200 2.900 0.002000
GW 53 8 2.300 0.000 3.000 2.300 0.000 3.300 0.080000
GW 54 25 2.300 0.000 3.300 2.300 0.000 5.800 0.004000
GW 55 1 2.300 0.000 2.900 2.300 0.000 3.000 0.010000
GW 56 1 2.300 0.000 2.900 2.500 0.000 2.900 0.002000
GW 57 1 2.300 0.000 2.900 2.100 0.000 2.900 0.002000
GW 58 1 2.300 0.000 2.900 2.300 0.200 2.900 0.002000
GW 59 1 2.300 0.000 2.900 2.300 -0.200 2.900 0.002000
GE 0
EX 0 54 13 0 1.0 0.0
GN 2 0 0 0 0.005 0.013  
LD 5 1 35 0 2E+07 0    
LD 5 40 41 0 2E+07 0   
LD 4 46 46 0 0 15.0    
FR 0 1 0 0 7.050 0     
EN
