CM EZNEC Model Converted to NEC2
CE
GW 1 300 0.000 0.000 30.000 0.000 150.000 30.000 0.006000
GW 2 400 0.000 0.000 0.000 0.000 400.000 0.000 0.003000
GW 3 400 0.000 0.000 0.000 0.000 -400.000 0.000 0.003000
GW 4 400 50.000 0.000 0.000 50.000 400.000 0.000 0.003000
GW 5 400 50.000 0.000 0.000 50.000 -400.000 0.000 0.003000
GW 6 400 -50.000 0.000 0.000 -50.000 400.000 0.000 0.003000
GW 7 400 -50.000 0.000 0.000 -50.000 -400.000 0.000 0.003000
GW 8 300 0.000 0.000 0.000 300.000 0.000 0.000 0.003000
GW 9 300 0.000 0.000 0.000 -300.000 0.000 0.000 0.003000
GW 10 300 0.000 50.000 0.000 300.000 50.000 0.000 0.003000
GW 11 300 0.000 50.000 0.000 -300.000 50.000 0.000 0.003000
GW 12 300 0.000 -50.000 0.000 300.000 -50.000 0.000 0.003000
GW 13 300 0.000 -50.000 0.000 -300.000 -50.000 0.000 0.003000
GE 0
EX 0 1 1 0 1.0 0.0
GD 1 0 0 0 0.005 0.013
LD 5 1 13 0 3.7E+07 0
FR 0 1 0 0 2.0 0
RP 0 37 73 1000 0 0 5 10 0 0
EN
