CM Square Loop Antenna - 80.2 meters total length
CE
GW      1       11      10.6762 10.6762 10      -10.6762        10.6762 10      0.002
GW      2       10      -10.6762        10.6762 10      -10.6762        -10.6762        10      0.002
GW      3       10      -10.6762        -10.6762        10      10.6762 -10.6762        10      0.002
GW      4       10      10.6762 -10.6762        10      10.6762 10.6762 10      0.002
GE      1
GN      2       0       0       0       13      0.005
GD      0       0       0       0       0       0       0       0
EK
EX      0       1       6       0       1       0       0       0
FR 0 1 0 0 10.1 0
RP      0       19      73      1000    0       0       5       10      0       0
EN
