CM 2-Meter Stacked Yagi Array - 144 MHz
CM Two 11-element Yagis stacked at lambda/2 spacing
CM Height: 10 meters above ground
CM Feed: Single feedpoint with power divider
CM Designed for EME operation
CE
GW 1 1 6.561951 -0.521000 7.580185 7.580185 -0.521000 6.561951 0.006000
GW 2 11 6.703372 -0.521000 7.438763 7.438763 -0.521000 6.703372 0.006000
GW 3 1 6.611448 -0.296000 7.530687 7.530687 -0.296000 6.611448 0.006000
GW 4 1 6.632662 -0.071000 7.509474 7.509474 -0.071000 6.632662 0.006000
GW 5 1 6.646804 0.154000 7.495332 7.495332 0.154000 6.646804 0.006000
GW 6 1 6.660946 0.379000 7.481190 7.481190 0.379000 6.660946 0.006000
GW 7 1 6.675088 0.604000 7.467048 7.467048 0.604000 6.675088 0.006000
GW 8 1 6.689230 0.829000 7.452905 7.452905 0.829000 6.689230 0.006000
GW 9 1 6.703372 1.054000 7.438763 7.438763 1.054000 6.703372 0.006000
GW 10 1 6.717514 1.279000 7.424621 7.424621 1.279000 6.717514 0.006000
GW 11 1 6.731657 1.504000 7.410479 7.410479 1.504000 6.731657 0.006000
GW 12 15 6.010408 -0.521000 8.131728 8.131728 -0.521000 6.010408 0.025000
GW 21 1 6.561951 0.521000 7.580185 7.580185 0.521000 6.561951 0.006000
GW 22 11 6.703372 0.521000 7.438763 7.438763 0.521000 6.703372 0.006000
GW 23 1 6.611448 0.746000 7.530687 7.530687 0.746000 6.611448 0.006000
GW 24 1 6.632662 0.971000 7.509474 7.509474 0.971000 6.632662 0.006000
GW 25 1 6.646804 1.196000 7.495332 7.495332 1.196000 6.646804 0.006000
GW 26 1 6.660946 1.421000 7.481190 7.481190 1.421000 6.660946 0.006000
GW 27 1 6.675088 1.646000 7.467048 7.467048 1.646000 6.675088 0.006000
GW 28 1 6.689230 1.871000 7.452905 7.452905 1.871000 6.689230 0.006000
GW 29 1 6.703372 2.096000 7.438763 7.438763 2.096000 6.703372 0.006000
GW 30 1 6.717514 2.321000 7.424621 7.424621 2.321000 6.717514 0.006000
GW 31 1 6.731657 2.546000 7.410479 7.410479 2.546000 6.731657 0.006000
GW 32 15 6.010408 0.521000 8.131728 8.131728 0.521000 6.010408 0.025000
GW 40 5 7.071068 -0.521000 7.071068 7.071068 0.521000 7.071068 0.004000
GW 41 20 0.000000 0.000000 0.000000 7.071068 0.000000 7.071068 0.025000
GE    1
GN    2    0    0    0   13 0.005
FR    0    1    0    0  144     0
EX    0   40    3    0    1     0
RP    0   37   73 1000   10     0     5     5
EN
