CM 2-Meter Stacked Yagi Array - 144 MHz
CM Two 11-element Yagis stacked at lambda/2 spacing
CM Height: 10 meters above ground
CM Feed: Single feedpoint with power divider
CM Designed for EME operation
CE
GW 1 1 -0.720000 -0.521000 10.000000 0.720000 -0.521000 10.000000 0.006000
GW 2 11 -0.520000 -0.521000 10.000000 0.520000 -0.521000 10.000000 0.006000
GW 3 1 -0.650000 -0.296000 10.000000 0.650000 -0.296000 10.000000 0.006000
GW 4 1 -0.620000 -0.071000 10.000000 0.620000 -0.071000 10.000000 0.006000
GW 5 1 -0.600000 0.154000 10.000000 0.600000 0.154000 10.000000 0.006000
GW 6 1 -0.580000 0.379000 10.000000 0.580000 0.379000 10.000000 0.006000
GW 7 1 -0.560000 0.604000 10.000000 0.560000 0.604000 10.000000 0.006000
GW 8 1 -0.540000 0.829000 10.000000 0.540000 0.829000 10.000000 0.006000
GW 9 1 -0.520000 1.054000 10.000000 0.520000 1.054000 10.000000 0.006000
GW 10 1 -0.500000 1.279000 10.000000 0.500000 1.279000 10.000000 0.006000
GW 11 1 -0.480000 1.504000 10.000000 0.480000 1.504000 10.000000 0.006000
GW 12 15 -1.500000 -0.521000 10.000000 1.500000 -0.521000 10.000000 0.025000
GW 21 1 -0.720000 0.521000 10.000000 0.720000 0.521000 10.000000 0.006000
GW 22 11 -0.520000 0.521000 10.000000 0.520000 0.521000 10.000000 0.006000
GW 23 1 -0.650000 0.746000 10.000000 0.650000 0.746000 10.000000 0.006000
GW 24 1 -0.620000 0.971000 10.000000 0.620000 0.971000 10.000000 0.006000
GW 25 1 -0.600000 1.196000 10.000000 0.600000 1.196000 10.000000 0.006000
GW 26 1 -0.580000 1.421000 10.000000 0.580000 1.421000 10.000000 0.006000
GW 27 1 -0.560000 1.646000 10.000000 0.560000 1.646000 10.000000 0.006000
GW 28 1 -0.540000 1.871000 10.000000 0.540000 1.871000 10.000000 0.006000
GW 29 1 -0.520000 2.096000 10.000000 0.520000 2.096000 10.000000 0.006000
GW 30 1 -0.500000 2.321000 10.000000 0.500000 2.321000 10.000000 0.006000
GW 31 1 -0.480000 2.546000 10.000000 0.480000 2.546000 10.000000 0.006000
GW 32 15 -1.500000 0.521000 10.000000 1.500000 0.521000 10.000000 0.025000
GW 40 5 0.000000 -0.521000 10.000000 0.000000 0.521000 10.000000 0.004000
GW 41 20 0.000000 0.000000 0.000000 0.000000 0.000000 10.000000 0.025000
GE    1
GN    2    0    0    0   13 0.005
FR    0    1    0    0  144     0
EX    0   40    3    0    1     0
RP    0   37   73 1000   10     0     5     5
EN
