CM EZNEC Model Converted to NEC2
CE
GW 1 0 -19.750 0.000 0.000 19.750 0.000 0.000 1.900000
GW 2 0 -19.750 1.300 0.000 19.750 1.300 0.000 1.600000
GW 3 0 -19.750 -1.300 0.000 19.750 -1.300 0.000 1.600000
GW 4 0 -19.750 0.000 1.300 19.750 0.000 1.300 1.600000
GW 5 0 -19.750 0.000 -1.300 19.750 0.000 -1.300 1.600000
GW 6 0 -15.000 -1.900 0.000 -15.000 1.900 0.000 0.050000
GW 7 0 -10.000 -1.900 0.000 -10.000 1.900 0.000 0.050000
GW 8 0 -5.000 -1.900 0.000 -5.000 1.900 0.000 0.050000
GW 9 0 0.000 -1.900 0.000 0.000 1.900 0.000 0.050000
GW 10 0 5.000 -1.900 0.000 5.000 1.900 0.000 0.050000
GW 11 0 10.000 -1.900 0.000 10.000 1.900 0.000 0.050000
GW 12 0 15.000 -1.900 0.000 15.000 1.900 0.000 0.050000
GW 13 0 2.000 -1.900 -0.800 2.000 -17.900 1.200 1.800000
GW 14 0 3.500 -1.900 -0.800 3.500 -17.900 1.200 1.400000
GW 15 0 2.000 1.900 -0.800 2.000 17.900 1.200 1.800000
GW 16 0 3.500 1.900 -0.800 3.500 17.900 1.200 1.400000
GW 17 0 2.000 -1.900 -0.800 3.500 -1.900 -0.800 1.000000
GW 18 0 2.000 1.900 -0.800 3.500 1.900 -0.800 1.000000
GW 19 0 2.000 -17.900 1.200 3.500 -17.900 1.200 0.600000
GW 20 0 2.000 17.900 1.200 3.500 17.900 1.200 0.600000
GW 21 0 3.000 -4.500 -2.000 3.000 -4.500 -1.000 0.700000
GW 22 0 3.000 4.500 -2.000 3.000 4.500 -1.000 0.700000
GW 23 0 15.200 0.000 0.000 15.200 0.000 12.500 0.400000
GW 24 0 17.200 0.000 0.000 17.200 0.000 12.500 0.350000
GW 25 0 15.200 0.000 12.500 17.200 0.000 12.500 0.300000
GW 26 0 15.500 -6.600 3.100 15.500 6.600 3.100 0.400000
GW 27 0 16.500 -6.600 3.100 16.500 6.600 3.100 0.350000
GW 28 0 15.500 -6.600 3.100 16.500 -6.600 3.100 0.250000
GW 29 0 15.500 6.600 3.100 16.500 6.600 3.100 0.250000
GW 30 0 8.000 0.000 0.000 8.000 0.000 -0.300 0.005000
GW 31 0 8.000 0.000 -0.300 8.000 0.000 -3.300 0.008000
GW 32 0 2.500 -8.000 0.500 2.500 -8.000 -1.500 0.006000
GW 33 0 -5.000 0.000 2.000 -5.000 0.000 2.800 0.006000
GW 34 0 16.000 0.000 6.000 16.500 0.000 6.000 0.004000
GW 35 0 16.250 0.000 5.800 16.250 0.000 6.200 0.004000
GW 36 0 -2.000 0.000 2.100 -2.000 0.000 2.300 0.100000
GE 0
EX 0 30 1 0 1.0 0.0
GN -1 0 0 0 0 0  ; Free space (11,300m altitude)
LD 5 1 29 0 3.7E+07 0  ; Aluminum fuselage, wings, stabilizers
LD 4 30 30 0 0 8.0     ; Automatic antenna coupler
FR 0 1 0 0 8.900 0     ; Aeronautical HF frequency (8.9 MHz common)
RP 0 37 73 1000 0 0 5 10 0 0
EN
