CM Converted from EZNEC format
CE
GW 001 79 -19.75 0.0 0.0 19.75 0.0 0.0 1.9
GW 002 79 -19.75 1.3 0.0 19.75 1.3 0.0 1.6
GW 003 79 -19.75 -1.3 0.0 19.75 -1.3 0.0 1.6
GW 004 79 -19.75 0.0 1.3 19.75 0.0 1.3 1.6
GW 005 79 -19.75 0.0 -1.3 19.75 0.0 -1.3 1.6
GW 006 8 -15.0 -1.9 0.0 -15.0 1.9 0.0 0.05
GW 007 8 -10.0 -1.9 0.0 -10.0 1.9 0.0 0.05
GW 008 8 -5.0 -1.9 0.0 -5.0 1.9 0.0 0.05
GW 009 8 0.0 -1.9 0.0 0.0 1.9 0.0 0.05
GW 010 8 5.0 -1.9 0.0 5.0 1.9 0.0 0.05
GW 011 8 10.0 -1.9 0.0 10.0 1.9 0.0 0.05
GW 012 8 15.0 -1.9 0.0 15.0 1.9 0.0 0.05
GW 013 32 2.0 -1.9 -0.8 2.0 -17.9 1.2 1.8
GW 014 32 3.5 -1.9 -0.8 3.5 -17.9 1.2 1.4
GW 015 32 2.0 1.9 -0.8 2.0 17.9 1.2 1.8
GW 016 32 3.5 1.9 -0.8 3.5 17.9 1.2 1.4
GW 017 3 2.0 -1.9 -0.8 3.5 -1.9 -0.8 1.0
GW 018 3 2.0 1.9 -0.8 3.5 1.9 -0.8 1.0
GW 019 3 2.0 -17.9 1.2 3.5 -17.9 1.2 0.6
GW 020 3 2.0 17.9 1.2 3.5 17.9 1.2 0.6
GW 021 5 3.0 -4.5 -2.0 3.0 -4.5 -1.0 0.7
GW 022 5 3.0 4.5 -2.0 3.0 4.5 -1.0 0.7
GW 023 25 15.2 0.0 0.0 15.2 0.0 12.5 0.4
GW 024 25 17.2 0.0 0.0 17.2 0.0 12.5 0.35
GW 025 4 15.2 0.0 12.5 17.2 0.0 12.5 0.3
GW 026 26 15.5 -6.6 3.1 15.5 6.6 3.1 0.4
GW 027 26 16.5 -6.6 3.1 16.5 6.6 3.1 0.35
GW 028 4 15.5 -6.6 3.1 16.5 -6.6 3.1 0.25
GW 029 4 15.5 6.6 3.1 16.5 6.6 3.1 0.25
GW 030 3 8.0 0.0 0.0 8.0 0.0 -0.3 0.005
GW 031 15 8.0 0.0 -0.3 8.0 0.0 -3.3 0.008
GW 032 10 2.5 -8.0 0.5 2.5 -8.0 -1.5 0.006
GW 033 8 -5.0 0.0 2.0 -5.0 0.0 2.8 0.006
GW 034 5 16.0 0.0 6.0 16.5 0.0 6.0 0.004
GW 035 4 16.25 0.0 5.8 16.25 0.0 6.2 0.004
GW 036 2 -2.0 0.0 2.1 -2.0 0.0 2.3 0.1
GE 030
GN 1 -1 0 0 0 0 0
LD 5 1 29 0 3.7E+07 0  ; Aluminum fuselage, wings, stabilizers
LD 4 30 30 0 0 8.0     ; Automatic antenna coupler
FR 0 1 0 0 8.900 0     ; Aeronautical HF frequency (8.9 MHz common)
RP 0 37 73 1000 0 0 5 10 0 0
EN
