CM EZNEC Model Converted to NEC2
CE
GW 1 57 -2.860 0.000 10.000 2.860 0.000 10.000 0.025000
GW 2 21 -2.500 -0.525 10.000 -2.500 0.525 10.000 0.006000
GW 3 19 -1.800 -0.485 10.000 -1.800 0.485 10.000 0.006000
GW 4 19 -1.200 -0.465 10.000 -1.200 0.465 10.000 0.006000
GW 5 18 -0.700 -0.455 10.000 -0.700 0.455 10.000 0.006000
GW 6 18 -0.250 -0.445 10.000 -0.250 0.445 10.000 0.006000
GW 7 18 0.150 -0.440 10.000 0.150 0.440 10.000 0.006000
GW 8 17 0.500 -0.435 10.000 0.500 0.435 10.000 0.006000
GW 9 17 0.850 -0.430 10.000 0.850 0.430 10.000 0.006000
GW 10 17 1.250 -0.425 10.000 1.250 0.425 10.000 0.006000
GW 11 17 1.750 -0.420 10.000 1.750 0.420 10.000 0.006000
GW 12 16 2.350 -0.415 10.000 2.350 0.415 10.000 0.006000
GW 13 3 -2.500 0.000 10.000 -2.500 -0.525 10.000 0.006000
GW 14 3 -2.500 0.000 10.000 -2.500 0.525 10.000 0.006000
GW 15 3 -1.800 0.000 10.000 -1.800 -0.485 10.000 0.006000
GW 16 3 -1.800 0.000 10.000 -1.800 0.485 10.000 0.006000
GW 17 3 -1.200 0.000 10.000 -1.200 -0.465 10.000 0.006000
GW 18 3 -1.200 0.000 10.000 -1.200 0.465 10.000 0.006000
GW 19 3 -0.700 0.000 10.000 -0.700 -0.455 10.000 0.006000
GW 20 3 -0.700 0.000 10.000 -0.700 0.455 10.000 0.006000
GW 21 3 -0.250 0.000 10.000 -0.250 -0.445 10.000 0.006000
GW 22 3 -0.250 0.000 10.000 -0.250 0.445 10.000 0.006000
GW 23 3 0.150 0.000 10.000 0.150 -0.440 10.000 0.006000
GW 24 3 0.150 0.000 10.000 0.150 0.440 10.000 0.006000
GW 25 3 0.500 0.000 10.000 0.500 -0.435 10.000 0.006000
GW 26 3 0.500 0.000 10.000 0.500 0.435 10.000 0.006000
GW 27 3 0.850 0.000 10.000 0.850 -0.430 10.000 0.006000
GW 28 3 0.850 0.000 10.000 0.850 0.430 10.000 0.006000
GW 29 3 1.250 0.000 10.000 1.250 -0.425 10.000 0.006000
GW 30 3 1.250 0.000 10.000 1.250 0.425 10.000 0.006000
GW 31 3 1.750 0.000 10.000 1.750 -0.420 10.000 0.006000
GW 32 3 1.750 0.000 10.000 1.750 0.420 10.000 0.006000
GW 33 3 2.350 0.000 10.000 2.350 -0.415 10.000 0.006000
GW 34 3 2.350 0.000 10.000 2.350 0.415 10.000 0.006000
GW 35 2 -1.800 0.000 9.800 -1.800 0.000 10.000 0.010000
GE 0
EX 0 35 1 0 1.0 0.0
GD 1 0 0 0 0.005 0.013
LD 5 1 34 0 3.7E+07 0    
LD 4 35 35 0 200.0 0     
FR 0 1 0 0 144.5 0
RP 0 37 73 1000 0 0 5 10 0 0
EN
