CM EZNEC Model Converted to NEC2
CE
GW 1 34 -8.400 0.000 0.000 8.400 0.000 0.000 1.650000
GW 2 34 -8.400 1.200 0.000 8.400 1.200 0.000 1.400000
GW 3 34 -8.400 -1.200 0.000 8.400 -1.200 0.000 1.400000
GW 4 34 -8.400 0.000 1.200 8.400 0.000 1.200 1.400000
GW 5 34 -8.400 0.000 -1.200 8.400 0.000 -1.200 1.400000
GW 6 6 -6.000 -1.600 0.000 -6.000 1.600 0.000 0.050000
GW 7 6 -3.000 -1.600 0.000 -3.000 1.600 0.000 0.050000
GW 8 6 0.000 -1.600 0.000 0.000 1.600 0.000 0.050000
GW 9 6 3.000 -1.600 0.000 3.000 1.600 0.000 0.050000
GW 10 6 6.000 -1.600 0.000 6.000 1.600 0.000 0.050000
GW 11 6 0.000 0.000 3.000 0.000 0.000 4.200 0.300000
GW 12 42 0.000 -10.500 4.200 0.000 10.500 4.200 0.150000
GW 13 42 -10.500 0.000 4.200 10.500 0.000 4.200 0.150000
GW 14 8 -2.000 -1.500 1.800 2.000 -1.500 1.800 0.200000
GW 15 8 -2.000 1.500 1.800 2.000 1.500 1.800 0.200000
GW 16 6 -2.000 -1.500 1.800 -2.000 1.500 1.800 0.200000
GW 17 6 2.000 -1.500 1.800 2.000 1.500 1.800 0.200000
GW 18 20 6.000 0.000 1.000 16.000 0.000 2.500 0.400000
GW 19 5 16.000 0.000 2.500 16.000 0.000 5.000 0.200000
GW 20 5 16.000 -1.250 3.750 16.000 1.250 3.750 0.080000
GW 21 7 -2.000 -2.500 -1.500 -2.000 -2.500 0.000 0.050000
GW 22 7 -2.000 2.500 -1.500 -2.000 2.500 0.000 0.050000
GW 23 7 4.000 -2.500 -1.500 4.000 -2.500 0.000 0.050000
GW 24 7 4.000 2.500 -1.500 4.000 2.500 0.000 0.050000
GW 25 12 -2.000 -2.500 -1.000 4.000 -2.500 -1.000 0.030000
GW 26 12 -2.000 2.500 -1.000 4.000 2.500 -1.000 0.030000
GW 27 17 2.000 0.000 -1.200 2.000 0.000 -4.500 0.006000
GW 28 7 4.000 1.800 0.500 4.000 1.800 1.800 0.005000
GW 29 12 -3.000 0.000 2.200 -3.000 0.000 3.400 0.005000
GW 30 8 12.000 0.000 2.000 12.000 0.000 2.800 0.004000
GW 31 7 1.000 0.000 2.500 1.000 0.000 3.200 0.003000
GW 32 5 -2.000 -2.500 -0.500 -2.000 -1.800 -0.200 0.002000
GW 33 5 -2.000 2.500 -0.500 -2.000 1.800 -0.200 0.002000
GW 34 5 4.000 -2.500 -0.500 4.000 -1.800 -0.200 0.002000
GW 35 5 4.000 2.500 -0.500 4.000 1.800 -0.200 0.002000
GE 0
EX 0 27 8 0 1.0 0.0
GN 2 0 0 0 0.005 0.013  
LD 5 1 24 0 2.5E+07 0   ; Main fuselage and tail boom
LD 5 12 13 0 1E+06 0    ; Rotor blades (fiberglass/wood/steel)
FR 0 1 0 0 7.150 0      
RP 0 37 73 1000 0 0 5 10 0 0
EN
