CM EZNEC Model Converted to NEC2
CE
GW 1 18 -4.500 -1.630 0.000 4.500 -1.630 0.000 0.750000
GW 2 18 -4.500 1.630 0.000 4.500 1.630 0.000 0.750000
GW 3 6 -4.500 -1.630 0.000 -4.500 1.630 0.000 0.600000
GW 4 6 4.500 -1.630 0.000 4.500 1.630 0.000 0.600000
GW 5 18 -4.500 -1.630 1.800 4.500 -1.630 1.800 0.550000
GW 6 18 -4.500 1.630 1.800 4.500 1.630 1.800 0.550000
GW 7 6 -4.500 -1.630 1.800 -4.500 1.630 1.800 0.500000
GW 8 6 4.500 -1.630 1.800 4.500 1.630 1.800 0.500000
GW 9 6 -2.500 -1.630 0.000 -2.500 1.630 0.000 0.400000
GW 10 6 0.000 -1.630 0.000 0.000 1.630 0.000 0.400000
GW 11 6 2.500 -1.630 0.000 2.500 1.630 0.000 0.400000
GW 12 5 0.800 -1.150 1.800 0.800 1.150 1.800 0.450000
GW 13 6 0.000 -1.150 2.200 1.500 0.000 2.200 0.450000
GW 14 6 1.500 0.000 2.200 0.000 1.150 2.200 0.450000
GW 15 6 0.000 1.150 2.200 -1.500 0.000 2.200 0.450000
GW 16 6 -1.500 0.000 2.200 0.000 -1.150 2.200 0.450000
GW 17 2 0.300 -0.600 2.500 0.300 0.600 2.500 0.250000
GW 18 2 -0.300 -0.600 2.500 -0.300 0.600 2.500 0.250000
GW 19 2 0.300 -0.600 2.500 -0.300 -0.600 2.500 0.250000
GW 20 2 0.300 0.600 2.500 -0.300 0.600 2.500 0.250000
GW 21 12 1.200 0.000 2.300 7.200 0.000 2.300 0.120000
GW 22 8 -1.400 0.000 2.500 -1.400 0.000 4.000 0.008000
GW 23 5 3.200 -1.400 1.800 3.200 -1.400 2.800 0.006000
GW 24 15 1.000 1.000 2.500 1.000 1.000 5.500 0.010000
GW 25 3 0.200 0.400 2.600 0.200 0.400 3.200 0.004000
GW 26 2 -0.600 -0.800 2.600 -0.600 -0.800 2.900 0.003000
GW 27 2 -3.000 -1.900 -0.400 -3.000 -1.700 0.000 0.080000
GW 28 2 -1.500 -1.900 -0.400 -1.500 -1.700 0.000 0.080000
GW 29 2 0.000 -1.900 -0.400 0.000 -1.700 0.000 0.080000
GW 30 2 1.500 -1.900 -0.400 1.500 -1.700 0.000 0.080000
GW 31 2 3.000 -1.900 -0.400 3.000 -1.700 0.000 0.080000
GW 32 2 -3.000 1.900 -0.400 -3.000 1.700 0.000 0.080000
GW 33 2 -1.500 1.900 -0.400 -1.500 1.700 0.000 0.080000
GW 34 2 0.000 1.900 -0.400 0.000 1.700 0.000 0.080000
GW 35 2 1.500 1.900 -0.400 1.500 1.700 0.000 0.080000
GW 36 2 3.000 1.900 -0.400 3.000 1.700 0.000 0.080000
GW 37 16 -4.000 -1.900 -0.200 4.000 -1.900 -0.200 0.040000
GW 38 16 -4.000 1.900 -0.200 4.000 1.900 -0.200 0.040000
GW 39 4 2.000 -1.400 0.800 4.200 -1.400 0.800 0.250000
GW 40 4 2.000 1.400 0.800 4.200 1.400 0.800 0.250000
GW 41 3 2.000 -1.400 0.800 2.000 1.400 0.800 0.250000
GW 42 3 4.200 -1.400 0.800 4.200 1.400 0.800 0.250000
GW 43 2 -1.000 -1.800 1.200 -1.000 -1.800 1.600 0.150000
GW 44 2 -1.000 1.800 1.200 -1.000 1.800 1.600 0.150000
GE 0
EX 0 22 4 0 1.0 0.0
GN 2 0 0 0 0.002 0.018  
LD 5 1 20 0 8E+06 0     
LD 5 21 21 0 8E+06 0    
LD 5 27 38 0 4E+06 0    
LD 5 43 44 0 6E+06 0    
FR 0 1 0 0 36.000 0     
RP 0 37 73 1000 0 0 5 10 0 0
EN
