CM EZNEC Model Converted to NEC2
CE
GW 1 79 -19.750 0.000 0.000 19.750 0.000 0.000 1.900000
GW 2 79 -19.750 1.300 0.000 19.750 1.300 0.000 1.600000
GW 3 79 -19.750 -1.300 0.000 19.750 -1.300 0.000 1.600000
GW 4 79 -19.750 0.000 1.300 19.750 0.000 1.300 1.600000
GW 5 79 -19.750 0.000 -1.300 19.750 0.000 -1.300 1.600000
GW 6 8 -15.000 -1.900 0.000 -15.000 1.900 0.000 0.050000
GW 7 8 -10.000 -1.900 0.000 -10.000 1.900 0.000 0.050000
GW 8 8 -5.000 -1.900 0.000 -5.000 1.900 0.000 0.050000
GW 9 8 0.000 -1.900 0.000 0.000 1.900 0.000 0.050000
GW 10 8 5.000 -1.900 0.000 5.000 1.900 0.000 0.050000
GW 11 8 10.000 -1.900 0.000 10.000 1.900 0.000 0.050000
GW 12 8 15.000 -1.900 0.000 15.000 1.900 0.000 0.050000
GW 13 32 2.000 -1.900 -0.800 2.000 -17.900 1.200 1.800000
GW 14 32 3.500 -1.900 -0.800 3.500 -17.900 1.200 1.400000
GW 15 32 2.000 1.900 -0.800 2.000 17.900 1.200 1.800000
GW 16 32 3.500 1.900 -0.800 3.500 17.900 1.200 1.400000
GW 17 3 2.000 -1.900 -0.800 3.500 -1.900 -0.800 1.000000
GW 18 3 2.000 1.900 -0.800 3.500 1.900 -0.800 1.000000
GW 19 3 2.000 -17.900 1.200 3.500 -17.900 1.200 0.600000
GW 20 3 2.000 17.900 1.200 3.500 17.900 1.200 0.600000
GW 21 5 3.000 -4.500 -2.000 3.000 -4.500 -1.000 0.700000
GW 22 5 3.000 4.500 -2.000 3.000 4.500 -1.000 0.700000
GW 23 25 15.200 0.000 0.000 15.200 0.000 12.500 0.400000
GW 24 25 17.200 0.000 0.000 17.200 0.000 12.500 0.350000
GW 25 4 15.200 0.000 12.500 17.200 0.000 12.500 0.300000
GW 26 26 15.500 -6.600 3.100 15.500 6.600 3.100 0.400000
GW 27 26 16.500 -6.600 3.100 16.500 6.600 3.100 0.350000
GW 28 4 15.500 -6.600 3.100 16.500 -6.600 3.100 0.250000
GW 29 4 15.500 6.600 3.100 16.500 6.600 3.100 0.250000
GW 30 15 8.000 0.000 -0.300 8.000 0.000 -3.300 0.008000
GW 31 2 -2.000 0.000 2.100 -2.000 0.000 2.300 0.100000
GE 0
EX 0 30 8 0 1.0 0.0
GN -1 0 0 0 0 0
LD 5 1 29 0 3.7E+07 0    
LD 5 31 31 0 3.7E+07 0   
LD 4 30 30 0 50.0 0.025  
FR 0 1 0 0 8.900 0
RP 0 37 73 1000 0 0 5 10 0 0
EN
