CM EZNEC Model Converted to NEC2
CE
GW 1 20 0.000 0.000 0.000 0.000 0.000 10.000 0.006000
GW 2 75 0.000 0.000 10.000 37.500 0.000 10.000 0.006000
GW 3 75 0.000 0.000 10.000 -37.500 0.000 10.000 0.006000
GW 4 150 0.000 0.000 0.000 150.000 0.000 0.000 0.003000
GW 5 150 0.000 0.000 0.000 -150.000 0.000 0.000 0.003000
GW 6 150 0.000 0.000 0.000 0.000 150.000 0.000 0.003000
GW 7 150 0.000 0.000 0.000 0.000 -150.000 0.000 0.003000
GE 0
EX 0 1 1 0 1.0 0.0
GD 1 0 0 0 0.005 0.013
LD 5 1 7 0 3.7E+07 0
FR 0 1 0 0 500.0 0
RP 0 37 73 1000 0 0 5 10 0 0
EN
