CM EZNEC Model Converted to NEC2
CE
GW 1 5 0.000 0.000 5.000 0.000 0.000 6.000 0.015000
GW 2 5 0.000 0.000 6.000 0.000 0.000 6.175 0.003000
GW 3 5 0.000 0.000 6.175 0.000 0.000 6.350 0.003000
GW 4 4 0.000 0.000 5.000 0.350 0.000 5.000 0.002000
GW 5 4 0.000 0.000 5.000 -0.350 0.000 5.000 0.002000
GW 6 4 0.000 0.000 5.000 0.000 0.350 5.000 0.002000
GW 7 4 0.000 0.000 5.000 0.000 -0.350 5.000 0.002000
GE 0
EX 0 2 1 0 1.0 0.0
GD 1 0 0 0 0.005 0.013
LD 5 1 1 0 1E+06 0       
LD 5 2 3 0 3.7E+07 0     
LD 5 4 7 0 3.7E+07 0     
FR 0 1 0 0 432.0 0
RP 0 37 73 1000 0 0 5 10 0 0
EN
