CM 4m Band Dipole Antenna (70 MHz)
CM Norwegian 4m band allocation: 69.9-70.5 MHz
CM Center frequency: 70.0 MHz
CM Wavelength: 4.28 meters
CE
GW 1 21 0.0 0.0 0.0 0.0 0.0 2.14 0.001
GE 1 0
EX 0 1 11 0 1.0 0.0
FR 0 1 0 0 70.0 0
RP 0 91 360 1000 0.0 0.0 1.0 1.0
EN