CM 6-Element Yagi Antenna for 70MHz (4m band)
CM Peak Gain: 11.01dBi @ 70.150MHz, F/B: 21.45dB
CM SWR: Below 1.1:1 from 70MHz to 70.500MHz
CM Antenna height: 10 meters above ground
CM Element diameter: 13mm (0.5 inch)
CE
GW 1 21 0 -1.056 10 0 1.056 10 0.0065
GW 2 21 0.205 -0.901 10 0.205 0.901 10 0.0065
GW 3 21 0.592 -0.901 10 0.592 0.901 10 0.0065
GW 4 21 0.983 -0.986 10 0.983 0.986 10 0.0065
GW 5 21 2.164 -0.944 10 2.164 0.944 10 0.0065
GW 6 21 3.38 -0.926 10 3.38 0.926 10 0.0065
GW 7 11 0.205 0.901 10 0.592 0.901 10 0.005
GW 8 11 0.205 -0.901 10 0.592 -0.901 10 0.005
GE 0
GD 0 0 0 0 0.005 13
FR 0 1 0 0 70.15 0
EX 0 2 11 0 1 0 0
RP 0 37 73 1000 0 0 5 5 0 0
Ewhho