CM EZNEC Model Converted to NEC2
CE
GW 1 17 -4.140 0.000 0.000 4.140 0.000 0.000 0.600000
GW 2 17 -4.140 0.500 0.000 4.140 0.500 0.000 0.500000
GW 3 17 -4.140 -0.500 0.000 4.140 -0.500 0.000 0.500000
GW 4 17 -4.140 0.000 0.500 4.140 0.000 0.500 0.500000
GW 5 17 -4.140 0.000 -0.500 4.140 0.000 -0.500 0.500000
GW 6 4 -2.500 -0.600 0.000 -2.500 0.600 0.000 0.030000
GW 7 4 0.000 -0.600 0.000 0.000 0.600 0.000 0.030000
GW 8 4 2.500 -0.600 0.000 2.500 0.600 0.000 0.030000
GW 9 20 -0.500 -0.600 1.300 -0.500 -5.500 1.400 0.600000
GW 10 20 0.500 -0.600 1.300 0.500 -5.500 1.400 0.400000
GW 11 20 -0.500 0.600 1.300 -0.500 5.500 1.400 0.600000
GW 12 20 0.500 0.600 1.300 0.500 5.500 1.400 0.400000
GW 13 4 -0.500 -0.600 1.300 0.500 -0.600 1.300 0.300000
GW 14 4 -0.500 0.600 1.300 0.500 0.600 1.300 0.300000
GW 15 4 -0.500 -5.500 1.400 0.500 -5.500 1.400 0.200000
GW 16 4 -0.500 5.500 1.400 0.500 5.500 1.400 0.200000
GW 17 4 -4.000 -0.400 -0.200 -3.200 -0.400 -0.200 0.200000
GW 18 4 -4.000 0.400 -0.200 -3.200 0.400 -0.200 0.200000
GW 19 4 -4.000 -0.400 -0.200 -4.000 0.400 -0.200 0.200000
GW 20 4 -3.200 -0.400 -0.200 -3.200 0.400 -0.200 0.200000
GW 21 9 3.500 0.000 0.000 3.500 0.000 1.800 0.150000
GW 22 9 3.800 0.000 0.000 3.800 0.000 1.800 0.120000
GW 23 2 3.500 0.000 1.800 3.800 0.000 1.800 0.100000
GW 24 6 3.400 -1.500 0.400 3.400 1.500 0.400 0.150000
GW 25 6 3.700 -1.500 0.400 3.700 1.500 0.400 0.120000
GW 26 2 3.400 -1.500 0.400 3.700 -1.500 0.400 0.100000
GW 27 2 3.400 1.500 0.400 3.700 1.500 0.400 0.100000
GW 28 13 1.000 0.000 1.400 1.000 0.000 4.000 0.004000
GW 29 11 0.000 -5.300 1.400 2.000 0.000 1.600 0.002000
GW 30 11 2.000 0.000 1.600 0.000 5.300 1.400 0.002000
GW 31 3 1.000 0.000 1.400 1.000 0.000 1.700 0.020000
GW 32 3 1.000 0.000 1.400 1.300 0.000 1.400 0.002000
GW 33 3 1.000 0.000 1.400 0.700 0.000 1.400 0.002000
GW 34 3 1.000 0.000 1.400 1.000 0.300 1.400 0.002000
GW 35 3 1.000 0.000 1.400 1.000 -0.300 1.400 0.002000
GE 0
EX 0 31 1 0 1.0 0.0
GN 2 0 0 0 0.0005 0.008  
LD 5 1 27 0 3.7E+07 0  
LD 4 31 31 0 0 25.0    
FR 0 1 0 0 14.23 0    
RP 0 37 73 1000 0 0 5 10 0 0
EN
