CM EZNEC Model Converted to NEC2
CE
GW 1 15 -3.660 0.000 0.000 3.660 0.000 0.000 0.015000
GW 2 13 -3.660 -0.650 0.000 -3.660 0.650 0.000 0.002000
GW 3 13 0.000 -0.630 0.000 0.000 0.630 0.000 0.002000
GW 4 12 1.500 -0.610 0.000 1.500 0.610 0.000 0.002000
GW 5 12 3.000 -0.590 0.000 3.000 0.590 0.000 0.002000
GE 0
EX 0 3 1 0 1.0 0.0
GN 2 0 0 0 0.005 0.013  
LD 5 1 1 0 3.7E+07 0    
FR 0 1 0 0 28.850 0     
RP 0 37 73 1000 0 0 5 10 0 0
EN
