CM 4m Band 11-Element Yagi Antenna (70.2 MHz)
CM Norwegian 4m band allocation: 69.9-70.5 MHz
CM Center frequency: 70.2 MHz
CM Wavelength: 4.27 meters
CM Boom Length: 4.883m
CM Antenna height: 10 meters above ground
CM Target Gain: ~11.8dBi @ 70.200MHz
CM Target F/B: ~30dB @ 70.200MHz
CE 
GW     1    21  -2.44150E+00 -1.17500E+00  1.00000E+01 -2.44150E+00  1.17500E+00  1.00000E+01  1.00000E-03
GW     2    21  -1.95320E+00 -1.12500E+00  1.00000E+01 -1.95320E+00  1.12500E+00  1.00000E+01  1.00000E-03
GW     3    21  -1.46490E+00 -1.09000E+00  1.00000E+01 -1.46490E+00  1.09000E+00  1.00000E+01  1.00000E-03
GW     4    21  -9.76600E-01 -1.06000E+00  1.00000E+01 -9.76600E-01  1.06000E+00  1.00000E+01  1.00000E-03
GW     5    21  -4.88300E-01 -1.04000E+00  1.00000E+01 -4.88300E-01  1.04000E+00  1.00000E+01  1.00000E-03
GW     6    21   0.00000E+00 -1.02000E+00  1.00000E+01  0.00000E+00  1.02000E+00  1.00000E+01  1.00000E-03
GW     7    21   4.88300E-01 -1.00000E+00  1.00000E+01  4.88300E-01  1.00000E+00  1.00000E+01  1.00000E-03
GW     8    21   9.76600E-01 -9.80000E-01  1.00000E+01  9.76600E-01  9.80000E-01  1.00000E+01  1.00000E-03
GW     9    21   1.46490E+00 -9.60000E-01  1.00000E+01  1.46490E+00  9.60000E-01  1.00000E+01  1.00000E-03
GW    10    21   1.95320E+00 -9.40000E-01  1.00000E+01  1.95320E+00  9.40000E-01  1.00000E+01  1.00000E-03
GW    11    21   2.44150E+00 -9.20000E-01  1.00000E+01  2.44150E+00  9.20000E-01  1.00000E+01  1.00000E-03
GE     0     0   0.00000E+00  0.00000E+00  0.00000E+00  0.00000E+00  0.00000E+00  0.00000E+00  0.00000E+00
GN     1     0     0      0  1.30000E+01  5.00000E-03  0.00000E+00  0.00000E+00  0.00000E+00  0.00000E+00
EX     0     2    11      0  1.00000E+00  0.00000E+00  0.00000E+00  0.00000E+00  0.00000E+00  0.00000E+00
FR     0     1     0      0  7.02000E+01  0.00000E+00  0.00000E+00  0.00000E+00  0.00000E+00  0.00000E+00
RP     0    91   360   1000  0.00000E+00  0.00000E+00  1.00000E+00  1.00000E+00  0.00000E+00  0.00000E+00
EN     0     0     0      0  0.00000E+00  0.00000E+00  0.00000E+00  0.00000E+00  0.00000E+00  0.00000E+00
