CM 2-Meter Vertical Antenna - Corrected Version
CE
GW     1    10  0.00000E+00  0.00000E+00  0.00000E+00  0.00000E+00  0.00000E+00  1.00000E+01  1.00000E-02
GE     0     0  0.00000E+00  0.00000E+00  0.00000E+00  0.00000E+00  0.00000E+00  0.00000E+00  0.00000E+00
GN     0     0     0     0  5.00000E-03  1.30000E+01     0     0     0
EX     0     1     1     0  1.00000E+00  0.00000E+00     0     0     0
FR     0     1     0     0  1.46000E+02     0     0     0     0
RP     0    91   360  1000  0.00000E+00  0.00000E+00  2.00000E+00  1.00000E+00
EN
