CM EZNEC Model Converted to NEC2
CE
GW 1 5 0.000 0.000 0.000 0.000 0.000 0.480 0.005000
GW 4 8 0.000 0.000 0.000 0.000 0.000 15.000 0.200000
GW 5 8 -5.000 -3.000 0.000 5.000 -3.000 0.000 0.100000
GW 6 8 -5.000 3.000 0.000 5.000 3.000 0.000 0.100000
GW 7 4 -5.000 -3.000 0.000 -5.000 3.000 0.000 0.100000
GW 8 4 5.000 -3.000 0.000 5.000 3.000 0.000 0.100000
GW 9 3 0.000 0.000 0.000 1.000 0.000 0.000 0.002000
GW 10 3 0.000 0.000 0.000 0.000 1.000 0.000 0.002000
GW 11 3 0.000 0.000 0.000 -1.000 0.000 0.000 0.002000
GW 12 3 0.000 0.000 0.000 0.000 -1.000 0.000 0.002000
GE 0
EX 0 1 1 0 1.0 0.0
GD  1  0  0  0  5.0  81
FR  0  1  0  0  156.8  0
RP  0  37  73  1000  0  0  5  10  0  0
EN
