CM 2x11-Element Yagi Array for 2m EME (144 MHz)
CM Spacing: 41 inches center-to-center (1.04m)
CM Boom separation: 45+ inches (1.14m)
CM Height: 10 meters above ground
CM Expected gain: Single antenna + 2.5-3.0 dB
CM Feed: Single feed point between antennas
CE

CM First Yagi (left side, -0.52m from center)
GW 1 57 -3.38 0.000 10.000 1.88 0.000 10.000 0.025000
GW 2 21 -2.50 -0.525 10.000 -2.50 0.525 10.000 0.006000
GW 3 19 -1.80 -0.485 10.000 -1.80 0.485 10.000 0.006000
GW 4 19 -1.20 -0.465 10.000 -1.20 0.465 10.000 0.006000
GW 5 18 -0.70 -0.455 10.000 -0.70 0.455 10.000 0.006000
GW 6 18 -0.25 -0.445 10.000 -0.25 0.445 10.000 0.006000
GW 7 18 0.15 -0.440 10.000 0.15 0.440 10.000 0.006000
GW 8 17 0.50 -0.435 10.000 0.50 0.435 10.000 0.006000
GW 9 17 0.85 -0.430 10.000 0.85 0.430 10.000 0.006000
GW 10 17 1.25 -0.425 10.000 1.25 0.425 10.000 0.006000
GW 11 17 1.75 -0.420 10.000 1.75 0.420 10.000 0.006000
GW 12 16 2.35 -0.415 10.000 2.35 0.415 10.000 0.006000

CM Second Yagi (right side, +0.52m from center)
GW 13 21 -1.46 -0.525 10.000 -1.46 0.525 10.000 0.006000
GW 14 19 -0.76 -0.485 10.000 -0.76 0.485 10.000 0.006000
GW 15 19 -0.16 -0.465 10.000 -0.16 0.465 10.000 0.006000
GW 16 18 0.34 -0.455 10.000 0.34 0.455 10.000 0.006000
GW 17 18 0.79 -0.445 10.000 0.79 0.445 10.000 0.006000
GW 18 18 1.19 -0.440 10.000 1.19 0.440 10.000 0.006000
GW 19 17 1.54 -0.435 10.000 1.54 0.435 10.000 0.006000
GW 20 17 1.89 -0.430 10.000 1.89 0.430 10.000 0.006000
GW 21 17 2.29 -0.425 10.000 2.29 0.425 10.000 0.006000
GW 22 17 2.79 -0.420 10.000 2.79 0.420 10.000 0.006000
GW 23 16 3.39 -0.415 10.000 3.39 0.415 10.000 0.006000

CM Feed points (driven elements)
GW 24 2 -2.50 0.000 9.800 -2.50 0.000 10.000 0.010000
GW 25 2 -1.46 0.000 9.800 -1.46 0.000 10.000 0.010000

GE 0
EX 0 24 1 0 1.0 0.0
EX 0 25 1 0 1.0 0.0
GD 1 0 0 0 0.005 0.013
LD 5 1 23 0 3.7E+07 0    
LD 4 24 25 0 200.0 0     
FR 0 1 0 0 144.5 0
RP 0 37 73 1000 0 0 5 10 0 0
EN
