CM 2x11-Element Yagi Array for 2m EME (144 MHz)
CM Spacing: 41 inches center-to-center (lambda/2 = 1.04m)
CM Boom separation: 45+ inches (1.14m)
CM Height: 10 meters above ground
CM Expected gain: Single antenna + 2.5-3.0 dB
CM Feed: Single feed point between antennas

CE

CM First Yagi (left side, -0.52m from center)
GW 1 11 -3.02 -1.0 10.0 -3.02 1.0 10.0 0.003
GW 2 11 -2.32 -1.0 10.0 -2.32 1.0 10.0 0.003
GW 3 11 -1.72 -1.0 10.0 -1.72 1.0 10.0 0.003
GW 4 11 -1.22 -1.0 10.0 -1.22 1.0 10.0 0.003
GW 5 11 -0.77 -1.0 10.0 -0.77 1.0 10.0 0.003
GW 6 11 -0.37 -1.0 10.0 -0.37 1.0 10.0 0.003
GW 7 11 0.03 -1.0 10.0 0.03 1.0 10.0 0.003
GW 8 11 0.38 -1.0 10.0 0.38 1.0 10.0 0.003
GW 9 11 0.78 -1.0 10.0 0.78 1.0 10.0 0.003
GW 10 11 1.28 -1.0 10.0 1.28 1.0 10.0 0.003
GW 11 11 1.88 -1.0 10.0 1.88 1.0 10.0 0.003

CM Second Yagi (right side, +0.52m from center)
GW 12 11 -1.98 -1.0 10.0 -1.98 1.0 10.0 0.003
GW 13 11 -1.28 -1.0 10.0 -1.28 1.0 10.0 0.003
GW 14 11 -0.68 -1.0 10.0 -0.68 1.0 10.0 0.003
GW 15 11 -0.18 -1.0 10.0 -0.18 1.0 10.0 0.003
GW 16 11 0.27 -1.0 10.0 0.27 1.0 10.0 0.003
GW 17 11 0.67 -1.0 10.0 0.67 1.0 10.0 0.003
GW 18 11 1.07 -1.0 10.0 1.07 1.0 10.0 0.003
GW 19 11 1.42 -1.0 10.0 1.42 1.0 10.0 0.003
GW 20 11 1.82 -1.0 10.0 1.82 1.0 10.0 0.003
GW 21 11 2.32 -1.0 10.0 2.32 1.0 10.0 0.003
GW 22 11 2.92 -1.0 10.0 2.92 1.0 10.0 0.003

CM Boom structures (5.72m each, positioned correctly)
GW 23 57 -3.38 0.0 10.0 1.88 0.0 10.0 0.02
GW 24 57 -1.38 0.0 10.0 3.88 0.0 10.0 0.02

CM Feed points (driven elements at correct positions)
GW 25 1 -2.32 -1.0 10.0 -2.32 1.0 10.0 0.003
GW 26 1 -1.28 -1.0 10.0 -1.28 1.0 10.0 0.003

GE 1
GN 1 0 0 0 0.005 0.013
FR 0 1 0 0 144.5 0
EX 0 25 1 0 1.0 0.0
EX 0 26 1 0 1.0 0.0
RP 0 37 73 1000 0 0 5 10 0 0
EN
