CM EZNEC Model Converted to NEC2
CE
GW 1 19 -2.400 -0.910 0.000 2.370 -0.910 0.000 0.040000
GW 2 19 -2.400 0.910 0.000 2.370 0.910 0.000 0.040000
GW 3 7 -2.400 -0.910 0.000 -2.400 0.910 0.000 0.040000
GW 4 7 2.370 -0.910 0.000 2.370 0.910 0.000 0.040000
GW 5 9 -2.400 -0.750 0.000 -1.500 -0.750 0.000 0.030000
GW 6 9 -2.400 0.750 0.000 -1.500 0.750 0.000 0.030000
GW 7 6 -2.400 -0.750 0.000 -2.400 0.750 0.000 0.030000
GW 8 11 -1.300 -0.800 1.450 1.000 -0.800 1.450 0.030000
GW 9 11 -1.300 0.800 1.450 1.000 0.800 1.450 0.030000
GW 10 6 -1.300 -0.800 1.450 -1.300 0.800 1.450 0.030000
GW 11 6 1.000 -0.800 1.450 1.000 0.800 1.450 0.030000
GW 12 6 1.000 -0.850 1.400 2.200 -0.850 1.400 0.030000
GW 13 6 1.000 0.850 1.400 2.200 0.850 1.400 0.030000
GW 14 7 1.000 -0.850 1.400 1.000 0.850 1.400 0.030000
GW 15 7 2.200 -0.850 1.400 2.200 0.850 1.400 0.030000
GW 16 9 -2.300 -0.800 1.350 -1.400 -0.800 1.350 0.030000
GW 17 9 -2.300 0.800 1.350 -1.400 0.800 1.350 0.030000
GW 18 6 -2.300 -0.800 1.350 -2.300 0.800 1.350 0.030000
GW 19 6 -1.400 -0.800 1.350 -1.400 0.800 1.350 0.030000
GW 20 7 -1.300 -0.800 0.000 -1.300 -0.800 1.450 0.020000
GW 21 7 -1.300 0.800 0.000 -1.300 0.800 1.450 0.020000
GW 22 7 1.000 -0.800 0.000 1.000 -0.800 1.450 0.020000
GW 23 7 1.000 0.800 0.000 1.000 0.800 1.450 0.020000
GW 24 7 1.800 0.000 1.400 1.800 0.000 1.750 0.070000
GW 25 5 1.800 0.000 1.750 1.800 0.000 2.000 0.025000
GW 26 22 1.800 0.000 2.000 1.800 0.000 4.200 0.003000
GW 27 1 1.800 0.000 1.350 1.800 0.000 1.400 0.008000
GW 28 1 1.800 0.000 1.350 2.000 0.000 1.350 0.002000
GW 29 1 1.800 0.000 1.350 1.600 0.000 1.350 0.002000
GW 30 1 1.800 0.000 1.350 1.800 0.200 1.350 0.002000
GW 31 1 1.800 0.000 1.350 1.800 -0.200 1.350 0.002000
GE 0
EX 0 27 1 0 1.0 0.0
GN 2 0 0 0 0.005 0.013  
LD 5 1 23 0 1.5E+07 0   
LD 4 24 24 0 0 15.0     
FR 0 1 0 0 3.75 0       
RP 0 37 73 1000 0 0 5 10 0 0
EN
