CM EZNEC Model Converted to NEC2
CE
GW 1 12 -1.525 0.000 0.000 1.525 0.000 0.000 0.010000
GW 2 7 -1.525 -0.360 0.000 -1.525 0.360 0.000 0.001000
GW 3 7 0.000 -0.350 0.000 0.000 0.350 0.000 0.001000
GW 4 7 0.800 -0.340 0.000 0.800 0.340 0.000 0.001000
GW 5 7 1.600 -0.330 0.000 1.600 0.330 0.000 0.001000
GE 0
EX 0 3 1 0 1.0 0.0
GN 2 0 0 0 0.005 0.013  
LD 5 1 1 0 3.7E+07 0    
FR 0 1 0 0 52.000 0     
RP 0 37 73 1000 0 0 5 10 0 0
EN
