CM EZNEC Model Converted to NEC2
CE
GW 1 17 -2.100 -0.900 0.000 2.100 -0.900 0.000 0.050000
GW 2 17 -2.100 0.900 0.000 2.100 0.900 0.000 0.050000
GW 3 8 -2.100 -0.900 0.000 -2.100 0.900 0.000 0.050000
GW 4 8 2.100 -0.900 0.000 2.100 0.900 0.000 0.050000
GW 5 4 -2.100 -0.700 0.000 -1.300 -0.700 0.000 0.050000
GW 6 4 -2.100 0.700 0.000 -1.300 0.700 0.000 0.050000
GW 7 6 -2.100 -0.700 0.000 -2.100 0.700 0.000 0.050000
GW 8 13 -0.800 -0.850 1.900 1.800 -0.850 1.900 0.030000
GW 9 13 -0.800 0.850 1.900 1.800 0.850 1.900 0.030000
GW 10 7 -0.800 -0.850 1.900 -0.800 0.850 1.900 0.030000
GW 11 7 1.800 -0.850 1.900 1.800 0.850 1.900 0.030000
GW 12 8 -1.000 -0.900 0.000 -1.000 0.900 0.000 0.030000
GW 13 8 0.000 -0.900 0.000 0.000 0.900 0.000 0.030000
GW 14 8 1.000 -0.900 0.000 1.000 0.900 0.000 0.030000
GW 15 20 -1.500 0.800 2.000 1.500 -0.800 4.830 0.004000
GW 16 1 -1.500 0.800 1.900 -1.500 0.800 2.000 0.008000
GW 17 1 -1.500 0.800 1.900 -1.300 0.850 1.900 0.003000
GW 18 1 -1.500 0.800 2.000 1.500 -0.800 2.000 0.001000
GE 0
EX 0 16 1 0 1.0 0.0
GN 2 0 0 0 0.003 0.015  
LD 5 1 14 0 5E+06 0     
LD 5 18 18 0 1E-10 0    
FR 0 1 0 0 36.0 0       
RP 0 37 73 1000 0 0 5 10 0 0
EN
