CM EZNEC Model Converted to NEC2
CE
GW 1 35 -8.800 0.000 0.000 8.800 0.000 0.000 1.250000
GW 2 35 -8.800 1.000 0.000 8.800 1.000 0.000 1.100000
GW 3 35 -8.800 -1.000 0.000 8.800 -1.000 0.000 1.100000
GW 4 35 -8.800 0.000 1.000 8.800 0.000 1.000 1.100000
GW 5 35 -8.800 0.000 -1.000 8.800 0.000 -1.000 1.100000
GW 6 5 -6.000 -1.250 0.000 -6.000 1.250 0.000 0.040000
GW 7 5 -3.000 -1.250 0.000 -3.000 1.250 0.000 0.040000
GW 8 5 0.000 -1.250 0.000 0.000 1.250 0.000 0.040000
GW 9 5 3.000 -1.250 0.000 3.000 1.250 0.000 0.040000
GW 10 5 6.000 -1.250 0.000 6.000 1.250 0.000 0.040000
GW 11 6 0.000 0.000 2.800 0.000 0.000 4.000 0.250000
GW 12 3 0.000 -1.500 4.000 0.000 -3.000 4.000 0.120000
GW 13 3 0.000 -4.000 4.000 0.000 -5.500 4.000 0.120000
GW 14 3 0.000 1.500 4.000 0.000 3.000 4.000 0.120000
GW 15 3 0.000 4.000 4.000 0.000 5.500 4.000 0.120000
GW 16 3 -1.500 0.000 4.000 -3.000 0.000 4.000 0.120000
GW 17 3 -4.000 0.000 4.000 -5.500 0.000 4.000 0.120000
GW 18 3 1.500 0.000 4.000 3.000 0.000 4.000 0.120000
GW 19 3 4.000 0.000 4.000 5.500 0.000 4.000 0.120000
GW 20 6 -1.500 -1.200 1.500 1.500 -1.200 1.500 0.150000
GW 21 6 -1.500 1.200 1.500 1.500 1.200 1.500 0.150000
GW 22 14 7.000 0.000 1.200 14.000 0.000 2.800 0.350000
GW 23 8 14.000 0.000 2.800 14.000 0.000 4.500 0.150000
GW 24 4 14.000 -1.070 3.650 14.000 1.070 3.650 0.060000
GW 25 16 -3.000 -1.800 -0.800 5.000 -1.800 -0.800 0.060000
GW 26 16 -3.000 1.800 -0.800 5.000 1.800 -0.800 0.060000
GW 27 8 2.000 0.000 -1.000 2.000 0.000 -2.000 0.006000
GE 0
EX 0 27 4 0 1.0 0.0
GN 2 0 0 0 0.005 0.013
LD 5 1 11 0 3.5E+07 0    
LD 5 20 26 0 3.5E+07 0   
LD 4 12 19 0 150.0 0     
LD 4 27 27 0 50.0 0.0    
FR 0 1 0 0 40.0 0
RP 0 37 73 1000 0 0 5 10 0 0
EN
