CM EZNEC Model Converted to NEC2
CE
GW 1 5 0.000 0.000 0.000 0.000 0.000 0.480 0.005000
GW 4 8 0.000 0.000 0.000 0.000 0.000 8.000 0.100000
GW 5 3 0.000 0.000 0.000 0.500 0.000 0.000 0.002000
GW 6 3 0.000 0.000 0.000 0.000 0.500 0.000 0.002000
GW 7 3 0.000 0.000 0.000 -0.500 0.000 0.000 0.002000
GW 8 3 0.000 0.000 0.000 0.000 -0.500 0.000 0.002000
GE 0
EX 0 1 1 0 1.0 0.0
GD  1  0  0  0  5.0  81
FR  0  1  0  0  156.8  0
RP  0  37  73  1000  0  0  5  10  0  0
EN
