CM EZNEC Model Converted to NEC2
CE
GW 1 11 -6.000 0.000 0.000 6.000 0.000 0.000 0.100000
GW 2 11 -6.000 -1.500 0.000 6.000 -1.500 0.000 0.100000
GW 3 11 -6.000 1.500 0.000 6.000 1.500 0.000 0.100000
GW 4 5 -6.000 -1.500 0.000 -6.000 1.500 0.000 0.100000
GW 5 5 6.000 -1.500 0.000 6.000 1.500 0.000 0.100000
GW 6 5 -3.000 -1.500 0.000 -3.000 1.500 0.000 0.100000
GW 7 5 0.000 -1.500 0.000 0.000 1.500 0.000 0.100000
GW 8 5 3.000 -1.500 0.000 3.000 1.500 0.000 0.100000
GW 9 25 1.000 0.000 0.000 1.000 0.000 15.000 0.050000
GW 10 10 1.000 0.000 10.000 1.000 0.000 15.000 0.002000
GW 11 15 1.000 0.000 15.000 -5.500 0.000 12.000 0.002000
GW 12 5 -5.500 0.000 3.000 -5.500 0.000 0.000 0.002000
GE 0
EX 0 10 1 0 1.0 0.0
GN 2 0 0 0 5.0 0.003  
LD 5 1 8 0 1E+06 0    
LD 5 9 9 0 3.5E+07 0  
FR 0 1 0 0 7.150 0  
RP 0 37 73 1000 0 0 5 10 0 0  ; Full pattern calculation
EN
