CM EZNEC Model Converted to NEC2
CE
GW 1 22 -5.485 0.000 0.000 5.485 0.000 0.000 0.025000
GW 2 55 -5.485 -2.750 0.000 -5.485 2.750 0.000 0.004000
GW 3 53 0.000 -2.650 0.000 0.000 2.650 0.000 0.004000
GW 4 51 4.000 -2.550 0.000 4.000 2.550 0.000 0.004000
GE 0
EX 0 3 1 0 1.0 0.0
GN 2 0 0 0 0.005 0.013  
LD 5 1 1 0 3.7E+07 0    
FR 0 1 0 0 7.150 0      
RP 0 37 73 1000 0 0 5 10 0 0
EN
