CM EZNEC Model Converted to NEC2
CE
GW 1 60 -14.900 0.000 0.000 14.900 0.000 0.000 1.880000
GW 2 60 -14.900 1.200 0.000 14.900 1.200 0.000 1.500000
GW 3 60 -14.900 -1.200 0.000 14.900 -1.200 0.000 1.500000
GW 4 60 -14.900 0.000 1.200 14.900 0.000 1.200 1.500000
GW 5 60 -14.900 0.000 -1.200 14.900 0.000 -1.200 1.500000
GW 6 7 -12.000 -1.800 0.000 -12.000 1.800 0.000 0.060000
GW 7 7 -8.000 -1.800 0.000 -8.000 1.800 0.000 0.060000
GW 8 7 -4.000 -1.800 0.000 -4.000 1.800 0.000 0.060000
GW 9 7 0.000 -1.800 0.000 0.000 1.800 0.000 0.060000
GW 10 7 4.000 -1.800 0.000 4.000 1.800 0.000 0.060000
GW 11 7 8.000 -1.800 0.000 8.000 1.800 0.000 0.060000
GW 12 7 12.000 -1.800 0.000 12.000 1.800 0.000 0.060000
GW 13 37 -3.000 -1.800 2.700 -3.000 -20.200 3.200 1.500000
GW 14 37 -1.500 -1.800 2.700 -1.500 -20.200 3.200 1.200000
GW 15 37 -3.000 1.800 2.700 -3.000 20.200 3.200 1.500000
GW 16 37 -1.500 1.800 2.700 -1.500 20.200 3.200 1.200000
GW 17 3 -3.000 -1.800 2.700 -1.500 -1.800 2.700 0.800000
GW 18 3 -3.000 1.800 2.700 -1.500 1.800 2.700 0.800000
GW 19 3 -3.000 -20.200 3.200 -1.500 -20.200 3.200 0.600000
GW 20 3 -3.000 20.200 3.200 -1.500 20.200 3.200 0.600000
GW 21 4 -4.500 -6.000 1.800 -4.500 -6.000 2.500 0.300000
GW 22 4 -4.500 -2.000 1.800 -4.500 -2.000 2.500 0.300000
GW 23 4 -4.500 2.000 1.800 -4.500 2.000 2.500 0.300000
GW 24 4 -4.500 6.000 1.800 -4.500 6.000 2.500 0.300000
GW 25 24 11.000 0.000 0.000 11.000 0.000 11.800 0.400000
GW 26 24 13.000 0.000 0.000 13.000 0.000 11.800 0.350000
GW 27 4 11.000 0.000 11.800 13.000 0.000 11.800 0.300000
GW 28 21 11.500 -5.300 3.000 11.500 5.300 3.000 0.400000
GW 29 21 12.500 -5.300 3.000 12.500 5.300 3.000 0.350000
GW 30 4 11.500 -5.300 3.000 12.500 -5.300 3.000 0.250000
GW 31 4 11.500 5.300 3.000 12.500 5.300 3.000 0.250000
GW 32 22 6.000 0.000 -0.400 28.000 0.000 -6.000 0.003000
GW 33 10 2.000 0.000 3.000 2.000 0.000 5.500 0.008000
GW 34 4 -2.250 -19.800 3.200 -2.250 -20.200 3.500 0.004000
GW 35 4 -2.250 19.800 3.200 -2.250 20.200 3.500 0.004000
GE 0
EX 0 32 1 0 1.0 0.0
GN -1 0 0 0 0 0
LD 5 1 31 0 3.7E+07 0    
LD 5 34 35 0 3.7E+07 0   
LD 4 32 32 0 50.0 0.020  
FR 0 1 0 0 7.150 0
RP 0 37 73 1000 0 0 5 10 0 0
EN
