CM EZNEC Model Converted to NEC2
CE
GW 1 24 -3.000 -1.000 0.000 3.000 -1.000 0.000 0.060000
GW 2 24 -3.000 1.000 0.000 3.000 1.000 0.000 0.060000
GW 3 8 -3.000 -1.000 0.000 -3.000 1.000 0.000 0.060000
GW 4 8 3.000 -1.000 0.000 3.000 1.000 0.000 0.060000
GW 5 6 -3.000 -0.800 0.000 -1.800 -0.800 0.000 0.050000
GW 6 6 -3.000 0.800 0.000 -1.800 0.800 0.000 0.050000
GW 7 6 -3.000 -0.800 0.000 -3.000 0.800 0.000 0.050000
GW 8 28 -2.800 -0.950 2.800 2.800 -0.950 2.800 0.040000
GW 9 28 -2.800 0.950 2.800 2.800 0.950 2.800 0.040000
GW 10 9 -2.800 -0.950 2.800 -2.800 0.950 2.800 0.040000
GW 11 9 2.800 -0.950 2.800 2.800 0.950 2.800 0.040000
GW 12 9 -2.000 -0.950 2.800 -2.000 0.950 2.800 0.030000
GW 13 9 -1.000 -0.950 2.800 -1.000 0.950 2.800 0.030000
GW 14 9 0.000 -0.950 2.800 0.000 0.950 2.800 0.030000
GW 15 9 1.000 -0.950 2.800 1.000 0.950 2.800 0.030000
GW 16 9 2.000 -0.950 2.800 2.000 0.950 2.800 0.030000
GW 17 14 -2.800 -0.950 0.000 -2.800 -0.950 2.800 0.030000
GW 18 14 -2.800 0.950 0.000 -2.800 0.950 2.800 0.030000
GW 19 14 2.800 -0.950 0.000 2.800 -0.950 2.800 0.030000
GW 20 14 2.800 0.950 0.000 2.800 0.950 2.800 0.030000
GW 21 15 -1.500 -0.800 2.850 1.500 -0.800 2.850 0.020000
GW 22 15 -1.500 0.800 2.850 1.500 0.800 2.850 0.020000
GW 23 8 -1.500 -0.800 2.850 -1.500 0.800 2.850 0.020000
GW 24 8 1.500 -0.800 2.850 1.500 0.800 2.850 0.020000
GW 25 8 2.500 -0.900 0.200 2.500 -0.900 0.500 0.080000
GW 26 20 2.500 -0.900 0.500 2.500 -0.900 2.500 0.004000
GW 27 1 2.500 -0.900 0.100 2.500 -0.900 0.200 0.010000
GW 28 1 2.500 -0.900 0.100 2.700 -0.900 0.100 0.002000
GW 29 1 2.500 -0.900 0.100 2.300 -0.900 0.100 0.002000
GW 30 1 2.500 -0.900 0.100 2.500 -1.100 0.100 0.002000
GW 31 1 2.500 -0.900 0.100 2.500 -0.700 0.100 0.002000
GE 0
EX 0 26 10 0 1.0 0.0
GN 2 0 0 0 0.01 0.013  
LD 5 1 24 0 2E+07 0    
LD 5 21 24 0 3.5E+07 0 
LD 4 25 25 0 0 12.0    
FR 0 1 0 0 7.050 0     
RP 0 37 73 1000 0 0 5 10 0 0
EN
