CM EZNEC Model Converted to NEC2
CE
GW 1 99 -24.750 0.000 0.000 24.750 0.000 0.000 1.450000
GW 2 99 -24.750 1.000 0.000 24.750 1.000 0.000 1.200000
GW 3 99 -24.750 -1.000 0.000 24.750 -1.000 0.000 1.200000
GW 4 99 -24.750 0.000 1.000 24.750 0.000 1.000 1.200000
GW 5 99 -24.750 0.000 -1.000 24.750 0.000 -1.000 1.200000
GW 6 6 -20.000 -1.400 0.000 -20.000 1.400 0.000 0.060000
GW 7 6 -15.000 -1.400 0.000 -15.000 1.400 0.000 0.060000
GW 8 6 -10.000 -1.400 0.000 -10.000 1.400 0.000 0.060000
GW 9 6 -5.000 -1.400 0.000 -5.000 1.400 0.000 0.060000
GW 10 6 0.000 -1.400 0.000 0.000 1.400 0.000 0.060000
GW 11 6 5.000 -1.400 0.000 5.000 1.400 0.000 0.060000
GW 12 6 10.000 -1.400 0.000 10.000 1.400 0.000 0.060000
GW 13 6 15.000 -1.400 0.000 15.000 1.400 0.000 0.060000
GW 14 6 20.000 -1.400 0.000 20.000 1.400 0.000 0.060000
GW 15 48 -8.000 -1.500 0.500 -12.000 -25.550 2.000 1.200000
GW 16 48 -6.000 -1.500 0.500 -10.000 -25.550 2.000 0.800000
GW 17 48 -8.000 1.500 0.500 -12.000 25.550 2.000 1.200000
GW 18 48 -6.000 1.500 0.500 -10.000 25.550 2.000 0.800000
GW 19 4 -8.000 -1.500 0.500 -6.000 -1.500 0.500 0.600000
GW 20 4 -8.000 1.500 0.500 -6.000 1.500 0.500 0.600000
GW 21 4 -12.000 -25.550 2.000 -10.000 -25.550 2.000 0.400000
GW 22 4 -12.000 25.550 2.000 -10.000 25.550 2.000 0.400000
GW 23 22 20.000 0.000 0.000 20.000 0.000 11.100 0.400000
GW 24 22 22.000 0.000 0.000 22.000 0.000 11.100 0.350000
GW 25 4 20.000 0.000 11.100 22.000 0.000 11.100 0.300000
GW 26 24 18.000 -6.000 2.000 18.000 6.000 2.000 0.400000
GW 27 24 20.000 -6.000 2.000 20.000 6.000 2.000 0.350000
GW 28 4 18.000 -6.000 2.000 20.000 -6.000 2.000 0.250000
GW 29 4 18.000 6.000 2.000 20.000 6.000 2.000 0.250000
GW 30 8 0.000 0.000 2.500 0.000 0.000 3.200 0.006000
GE 0
EX 0 30 4 0 1.0 0.0
GN -1 0 0 0 0 0
LD 5 1 29 0 3.7E+07 0    
LD 5 32 33 0 3.7E+07 0   
LD 4 30 30 0 50.0 0.0    
FR 0 1 0 0 125.0 0
RP 0 37 73 1000 0 0 5 10 0 0
EN
