CM EZNEC Model Converted to NEC2
CE
GW 1 40 -100.000 0.000 0.000 100.000 0.000 0.000 16.000000
GW 2 40 -100.000 -16.000 0.000 100.000 -16.000 0.000 12.000000
GW 3 40 -100.000 16.000 0.000 100.000 16.000 0.000 12.000000
GW 4 40 -100.000 0.000 -8.000 100.000 0.000 -8.000 12.000000
GW 5 16 -80.000 -16.000 0.000 -80.000 16.000 0.000 0.500000
GW 6 16 -60.000 -16.000 0.000 -60.000 16.000 0.000 0.500000
GW 7 16 -40.000 -16.000 0.000 -40.000 16.000 0.000 0.500000
GW 8 16 -20.000 -16.000 0.000 -20.000 16.000 0.000 0.500000
GW 9 16 0.000 -16.000 0.000 0.000 16.000 0.000 0.500000
GW 10 16 20.000 -16.000 0.000 20.000 16.000 0.000 0.500000
GW 11 16 40.000 -16.000 0.000 40.000 16.000 0.000 0.500000
GW 12 16 60.000 -16.000 0.000 60.000 16.000 0.000 0.500000
GW 13 16 80.000 -16.000 0.000 80.000 16.000 0.000 0.500000
GW 14 25 40.000 -12.000 15.000 90.000 -12.000 15.000 2.000000
GW 15 25 40.000 12.000 15.000 90.000 12.000 15.000 2.000000
GW 16 12 40.000 -12.000 15.000 40.000 12.000 15.000 2.000000
GW 17 12 90.000 -12.000 15.000 90.000 12.000 15.000 2.000000
GW 18 25 40.000 -12.000 25.000 90.000 -12.000 25.000 1.500000
GW 19 25 40.000 12.000 25.000 90.000 12.000 25.000 1.500000
GW 20 25 40.000 -12.000 35.000 90.000 -12.000 35.000 1.000000
GW 21 25 40.000 12.000 35.000 90.000 12.000 35.000 1.000000
GW 22 12 60.000 -8.000 40.000 85.000 -8.000 40.000 0.800000
GW 23 12 60.000 8.000 40.000 85.000 8.000 40.000 0.800000
GW 24 8 60.000 -8.000 40.000 60.000 8.000 40.000 0.800000
GW 25 8 85.000 -8.000 40.000 85.000 8.000 40.000 0.800000
GW 26 14 -90.000 -14.000 10.000 -90.000 14.000 10.000 0.300000
GW 27 14 -70.000 -14.000 10.000 -70.000 14.000 10.000 0.300000
GW 28 14 -50.000 -14.000 10.000 -50.000 14.000 10.000 0.300000
GW 29 14 -30.000 -14.000 10.000 -30.000 14.000 10.000 0.300000
GW 30 14 -10.000 -14.000 10.000 -10.000 14.000 10.000 0.300000
GW 31 14 10.000 -14.000 10.000 10.000 14.000 10.000 0.300000
GW 32 14 30.000 -14.000 10.000 30.000 14.000 10.000 0.300000
GW 33 8 75.000 0.000 40.000 75.000 0.000 55.000 0.200000
GW 34 5 65.000 6.000 40.000 65.000 6.000 50.000 0.150000
GW 35 5 20.000 -10.000 45.000 20.000 -10.000 50.000 0.100000
GW 36 5 20.000 10.000 45.000 20.000 10.000 50.000 0.100000
GW 37 5 0.000 -10.000 45.000 0.000 -10.000 50.000 0.100000
GW 38 5 0.000 10.000 45.000 0.000 10.000 50.000 0.100000
GW 39 20 0.000 -10.000 50.000 20.000 -10.000 50.000 0.004000
GW 40 20 20.000 -10.000 50.000 20.000 10.000 50.000 0.004000
GW 41 20 20.000 10.000 50.000 0.000 10.000 50.000 0.004000
GW 42 20 0.000 10.000 50.000 0.000 -10.000 50.000 0.004000
GW 43 1 10.000 -10.000 50.000 10.000 -10.000 49.500 0.008000
GW 44 5 10.000 -10.000 50.000 15.000 -5.000 45.000 0.002000
GW 45 5 10.000 10.000 50.000 15.000 5.000 45.000 0.002000
GW 46 5 0.000 0.000 50.000 5.000 0.000 45.000 0.002000
GW 47 5 20.000 0.000 50.000 15.000 0.000 45.000 0.002000
GW 48 15 75.000 0.000 55.000 75.000 0.000 70.000 0.006000
GW 49 12 65.000 6.000 50.000 65.000 6.000 62.000 0.005000
GW 50 3 75.000 -2.000 55.000 75.000 -2.000 58.000 0.004000
GW 51 3 75.000 2.000 55.000 75.000 2.000 58.000 0.004000
GE 0
EX 0 43 1 0 1.0 0.0
GN 2 0 0 0 5.0 0.003  
LD 5 1 34 0 5E+06 0    
LD 5 26 32 0 3.7E+07 0 
FR 0 1 0 0 3.750 0     
RP 0 37 73 1000 0 0 5 10 0 0
EN
