CM EZNEC Model Converted to NEC2
CE
GW 1 35 -8.800 0.000 0.000 8.800 0.000 0.000 1.250000
GW 2 35 -8.800 1.000 0.000 8.800 1.000 0.000 1.100000
GW 3 35 -8.800 -1.000 0.000 8.800 -1.000 0.000 1.100000
GW 4 35 -8.800 0.000 1.000 8.800 0.000 1.000 1.100000
GW 5 35 -8.800 0.000 -1.000 8.800 0.000 -1.000 1.100000
GW 6 5 -6.000 -1.250 0.000 -6.000 1.250 0.000 0.040000
GW 7 5 -3.000 -1.250 0.000 -3.000 1.250 0.000 0.040000
GW 8 5 0.000 -1.250 0.000 0.000 1.250 0.000 0.040000
GW 9 5 3.000 -1.250 0.000 3.000 1.250 0.000 0.040000
GW 10 5 6.000 -1.250 0.000 6.000 1.250 0.000 0.040000
GW 11 6 0.000 0.000 2.800 0.000 0.000 4.000 0.250000
GW 12 29 0.000 -7.300 4.000 0.000 7.300 4.000 0.120000
GW 13 29 -7.300 0.000 4.000 7.300 0.000 4.000 0.120000
GW 14 6 -1.500 -1.200 1.500 1.500 -1.200 1.500 0.150000
GW 15 6 -1.500 1.200 1.500 1.500 1.200 1.500 0.150000
GW 16 5 -1.500 -1.200 1.500 -1.500 1.200 1.500 0.150000
GW 17 5 1.500 -1.200 1.500 1.500 1.200 1.500 0.150000
GW 18 14 7.000 0.000 1.200 14.000 0.000 2.800 0.350000
GW 19 8 14.000 0.000 2.800 14.000 0.000 4.500 0.150000
GW 20 4 14.000 -1.070 3.650 14.000 1.070 3.650 0.060000
GW 21 16 -3.000 -1.800 -0.800 5.000 -1.800 -0.800 0.060000
GW 22 16 -3.000 1.800 -0.800 5.000 1.800 -0.800 0.060000
GW 23 7 -2.000 -1.800 -0.800 -2.000 1.800 -0.800 0.040000
GW 24 7 0.000 -1.800 -0.800 0.000 1.800 -0.800 0.040000
GW 25 7 2.000 -1.800 -0.800 2.000 1.800 -0.800 0.040000
GW 26 7 4.000 -1.800 -0.800 4.000 1.800 -0.800 0.040000
GW 27 12 3.500 1.300 1.000 3.500 1.300 2.200 0.006000
GW 28 6 1.000 0.000 2.000 1.000 0.000 2.600 0.005000
GW 29 14 2.500 0.000 -1.000 2.500 0.000 -3.800 0.007000
GW 30 8 -2.000 0.000 2.000 -2.000 0.000 2.800 0.005000
GW 31 4 4.500 0.000 -0.800 4.500 0.000 -1.200 0.004000
GW 32 2 -4.000 0.000 2.200 -4.000 0.000 2.400 0.050000
GW 33 8 10.000 0.000 2.400 10.000 0.000 3.200 0.004000
GW 34 3 -8.500 0.000 -0.500 -8.500 0.000 -0.800 0.020000
GE 0
EX 0 27 6 0 1.0 0.0
GN 2 0 0 0 0.005 0.013  
LD 5 1 26 0 3.5E+07 0   ; Aluminum fuselage and tail boom
LD 5 12 13 0 2E+06 0    ; Composite/aluminum rotor blades
FR 0 1 0 0 41.500 0     
RP 0 37 73 1000 0 0 5 10 0 0
EN
